      60
 i =        1, E =     -7949.3286678398
 Pt        -0.0009152089        0.0001204799        0.0006850752
 Pt        -0.0002866633        0.0001552595       -0.0005020083
 Pt         0.0009527895        0.0002474005        0.0003650074
 Pt         0.0008699020       -0.0003908214        0.0002676054
 Pt        -0.0002625036       -0.0001347859       -0.0019561364
 Pt         0.0005432261       -0.0004888172       -0.0020172427
 Pt         0.0002676558        0.0002510494       -0.0034127556
 Pt         0.0011051959        0.0005390380       -0.0030184034
 Pt         0.0000935005        0.0011920659       -0.0015926545
 Pt        -0.0003010259        0.0005008142       -0.0016211110
 Pt        -0.0004547593       -0.0007998097       -0.0027717798
 Pt        -0.0010968949       -0.0000721144       -0.0028469871
 Ni         0.0001520937       -0.0010482892        0.0000248665
 Ni        -0.0004844750       -0.0009143073        0.0002449245
 Ni         0.0002949638       -0.0017065549       -0.0000678591
 Ni        -0.0007227071       -0.0002416790        0.0016676176
 Pt         0.0013858254       -0.0010445061        0.0004772142
 Pt         0.0000745807        0.0013957131        0.0005375730
 Ni        -0.0016141154       -0.0013060819        0.0023738738
 Ni         0.0013240348        0.0017318478        0.0042104012
 Pt         0.0011134804       -0.0003651875        0.0003533454
 Pt        -0.0017367084        0.0000637901       -0.0001470250
 Pt        -0.0003641715        0.0017920775        0.0006378257
 Pt        -0.0018872678       -0.0009432837        0.0000034317
 Pt         0.0002108983       -0.0000003206        0.0001347734
 Pt         0.0003678441        0.0007972095        0.0001379676
 Ni        -0.0004165797        0.0022027057       -0.0012259275
 Pt         0.0000945931        0.0003900221        0.0001482479
 Pt         0.0006095696        0.0003699824       -0.0001610672
 Pt         0.0002619281        0.0002681835       -0.0003700895
 Ni         0.0030170357       -0.0007460714       -0.0006842255
 Pt         0.0002677921       -0.0002151775        0.0000467903
 Ni        -0.0008178435       -0.0022012657       -0.0009728709
 Pt        -0.0001416033       -0.0000301310        0.0002667817
 Pt         0.0004523212       -0.0000541362       -0.0005112598
 Pt         0.0002220296        0.0002950488        0.0005557479
 Pt         0.0019301914       -0.0013253010        0.0000426939
 Pt         0.0005045843        0.0018428385       -0.0005362654
 Pt         0.0018413834        0.0002027761        0.0001091223
 Pt        -0.0006859799       -0.0007475763       -0.0006142260
 Ni        -0.0016778136       -0.0013513938       -0.0024391601
 Pt         0.0000153018        0.0008581698       -0.0004262841
 Ni        -0.0010604694        0.0002498889       -0.0031961940
 Pt        -0.0008781745       -0.0005021172       -0.0006055493
 Ni        -0.0005192012        0.0002293439       -0.0018948066
 Ni        -0.0007379839        0.0008619896        0.0001493316
 Ni         0.0014959038        0.0004808431        0.0008928275
 Ni        -0.0008332337        0.0012318895        0.0008500183
 Pt         0.0009232258       -0.0000407148        0.0029416022
 Pt         0.0004216816       -0.0008137592        0.0029348905
 Pt         0.0002441634        0.0005003657        0.0016983111
 Pt         0.0000242770        0.0011237379        0.0013850300
 Pt        -0.0012423245        0.0003929974        0.0027725718
 Pt        -0.0003606070        0.0001574457        0.0035203415
 Pt        -0.0004809721       -0.0002955578        0.0021347029
 Pt         0.0002076592       -0.0002949982        0.0019032429
 Pt        -0.0007807076        0.0001877945       -0.0004038656
 Pt        -0.0006610163       -0.0006111767       -0.0007477239
 Pt         0.0003277280        0.0000471904        0.0006768089
 Pt         0.0007366664        0.0002507990       -0.0004826994
      60
 i =        2, E =     -7949.3300084726
 Pt         0.0005596514        0.0000374002       -0.0007482119
 Pt         0.0002965998       -0.0000114189       -0.0011736972
 Pt        -0.0001710764       -0.0002633794       -0.0009722475
 Pt        -0.0001971959        0.0003576707       -0.0009455571
 Pt         0.0004069375        0.0002956419       -0.0009904263
 Pt         0.0002987609        0.0002088055       -0.0004459413
 Pt         0.0006391997       -0.0000375177       -0.0008744037
 Pt         0.0004031594       -0.0000031438        0.0001335583
 Pt        -0.0002354211       -0.0000509400       -0.0004451340
 Pt        -0.0004255115        0.0003648879       -0.0004839720
 Pt        -0.0003647544        0.0002162663       -0.0001597015
 Pt        -0.0005429642       -0.0002085894       -0.0003319174
 Ni        -0.0001802538       -0.0000372982       -0.0004633869
 Ni        -0.0003541052       -0.0006705585       -0.0003977685
 Ni        -0.0012011691       -0.0002114329       -0.0002937773
 Ni        -0.0013290626        0.0002581843        0.0001181248
 Pt         0.0007757544       -0.0001512487        0.0004142560
 Pt         0.0001780162        0.0001053375        0.0000242102
 Ni         0.0002183155        0.0003131998        0.0002261606
 Ni         0.0017267777        0.0018083961        0.0000818680
 Pt         0.0005187389        0.0003375002        0.0004120561
 Pt        -0.0006263154        0.0001854965       -0.0003149646
 Pt         0.0000213985       -0.0002756832       -0.0001582969
 Pt        -0.0008495111        0.0001194125       -0.0002059041
 Pt         0.0001548059        0.0001215854        0.0000485845
 Pt         0.0001676679        0.0004679694       -0.0000889118
 Ni         0.0012579231       -0.0010348567       -0.0017293139
 Pt         0.0001430155        0.0001430824       -0.0000125540
 Pt        -0.0000639894       -0.0000811260        0.0001189848
 Pt         0.0001089780        0.0000695034        0.0001280285
 Ni        -0.0016640830       -0.0003855657       -0.0013947048
 Pt         0.0000560273       -0.0004197980       -0.0003735049
 Ni         0.0010178039        0.0010240736       -0.0015914851
 Pt         0.0001601326        0.0001614369        0.0000737042
 Pt        -0.0000024386        0.0002760070        0.0001968893
 Pt         0.0004147701        0.0004511880       -0.0002454891
 Pt         0.0012696363        0.0000635312        0.0005253459
 Pt         0.0003894549        0.0000548890        0.0003389323
 Pt         0.0012627214        0.0003052327       -0.0000478951
 Pt        -0.0004450934        0.0002756176        0.0000283455
 Ni        -0.0003571512        0.0006183355       -0.0000288935
 Pt         0.0000887323        0.0001420390       -0.0002355596
 Ni        -0.0003905243        0.0001629730        0.0001952387
 Pt        -0.0006088194       -0.0001347989       -0.0001251924
 Ni         0.0000708582       -0.0002970016       -0.0003002301
 Ni        -0.0011196231        0.0001134123        0.0002435182
 Ni         0.0001317536        0.0005004599        0.0000850813
 Ni        -0.0000130561       -0.0012429450        0.0002308104
 Pt         0.0004328608       -0.0002265467        0.0002606404
 Pt         0.0002416356        0.0002372278        0.0002532968
 Pt         0.0005639081        0.0004062680        0.0004592751
 Pt         0.0001770650       -0.0002183449        0.0004022208
 Pt        -0.0003328981        0.0000289875       -0.0000829386
 Pt        -0.0007626219       -0.0000831000        0.0005389159
 Pt        -0.0002236320        0.0002120269        0.0003943325
 Pt        -0.0004747542        0.0003754260        0.0008403477
 Pt         0.0002707592       -0.0002972788        0.0009579940
 Pt        -0.0000775877        0.0005036475        0.0008285045
 Pt        -0.0002674626        0.0000003869        0.0011028346
 Pt        -0.0005752161       -0.0001052217        0.0008270521
      60
 i =        3, E =     -7949.3302950164
 Pt         0.0002275018        0.0000203376       -0.0005372582
 Pt         0.0001088859       -0.0000276354       -0.0006519571
 Pt        -0.0001466720        0.0000964753       -0.0007566333
 Pt        -0.0001063481        0.0001526408       -0.0007162856
 Pt         0.0000663442        0.0001440605       -0.0003837556
 Pt        -0.0000736141        0.0002717829        0.0000159108
 Pt         0.0000512773        0.0000936820       -0.0001672344
 Pt        -0.0001826952       -0.0000354028        0.0003613108
 Pt         0.0001021743       -0.0000902555       -0.0000911715
 Pt         0.0001230728       -0.0000625656       -0.0002500653
 Pt         0.0001734624        0.0002676876        0.0002694120
 Pt         0.0002648919        0.0001211860        0.0001465503
 Ni         0.0000655384       -0.0001887514       -0.0001995444
 Ni        -0.0001797405       -0.0001317199       -0.0002608125
 Ni         0.0002479811       -0.0000465884       -0.0002284138
 Ni        -0.0004417718       -0.0002786981        0.0001539641
 Pt         0.0002645154        0.0001570079       -0.0002388055
 Pt         0.0000439959       -0.0003115751       -0.0000954070
 Ni         0.0000911147        0.0000573068       -0.0000178031
 Ni         0.0008277678       -0.0000147705       -0.0009564224
 Pt         0.0000365261        0.0003362116       -0.0003905985
 Pt        -0.0000649675        0.0003545415       -0.0003124810
 Pt        -0.0000404652       -0.0000744204       -0.0002847436
 Pt        -0.0001731661        0.0000598243       -0.0002475307
 Pt         0.0000411170       -0.0000054707       -0.0000498670
 Pt         0.0000777967        0.0002367389       -0.0002178707
 Ni         0.0000395181        0.0014015897       -0.0018348212
 Pt         0.0000567477       -0.0000142669        0.0000565596
 Pt        -0.0000128244        0.0000914872       -0.0000109681
 Pt         0.0001737626        0.0001255454        0.0000107879
 Ni         0.0009965329        0.0002434564       -0.0015329620
 Pt         0.0001136888       -0.0002056991       -0.0001688758
 Ni        -0.0001838328       -0.0012375729       -0.0018175973
 Pt        -0.0000399160        0.0001932070        0.0001044353
 Pt         0.0003264749        0.0001663415       -0.0001339291
 Pt        -0.0001098602        0.0001896985       -0.0003554086
 Pt         0.0003740384        0.0001135362        0.0004055413
 Pt         0.0002518578       -0.0002403170        0.0002947767
 Pt         0.0001097236        0.0003675072        0.0006076130
 Pt         0.0000065178        0.0001854267        0.0001962195
 Ni        -0.0005421239        0.0000552962        0.0005769878
 Pt         0.0000050857       -0.0002092939        0.0003019144
 Ni         0.0000645901        0.0001913199        0.0002391217
 Pt        -0.0000611585        0.0002533280        0.0002120796
 Ni        -0.0002600194        0.0003461990        0.0004676874
 Ni        -0.0008014295        0.0001612047        0.0000478874
 Ni        -0.0002245660       -0.0000608709       -0.0000703669
 Ni         0.0000738523       -0.0005852689       -0.0000408959
 Pt        -0.0002448898        0.0001084544       -0.0003195862
 Pt        -0.0001517074        0.0001599905       -0.0003294639
 Pt        -0.0002191920       -0.0000308721        0.0000523056
 Pt        -0.0000268963       -0.0000402770       -0.0000246549
 Pt         0.0001013309        0.0000000084       -0.0005883221
 Pt        -0.0000276050        0.0000455766       -0.0000246463
 Pt        -0.0000429934        0.0001865732       -0.0000911805
 Pt        -0.0001607837        0.0001351628        0.0000150676
 Pt         0.0000438122        0.0000746249        0.0006158721
 Pt         0.0001920785        0.0001407987        0.0004734415
 Pt        -0.0002760626        0.0000317251        0.0004827998
 Pt        -0.0002688443        0.0000569335        0.0002967316
      60
 i =        4, E =     -7949.3304261863
 Pt        -0.0000975831        0.0001271297       -0.0003210279
 Pt         0.0000260839        0.0001591219       -0.0001803381
 Pt        -0.0000011530        0.0002149707       -0.0002118808
 Pt         0.0000447064       -0.0001358232       -0.0003099755
 Pt        -0.0001559262       -0.0001130346       -0.0001283673
 Pt        -0.0001404150       -0.0000225983        0.0000053557
 Pt        -0.0003319418        0.0001639619        0.0000667100
 Pt        -0.0003140773        0.0000951911        0.0001030313
 Pt         0.0002866088        0.0001867549        0.0000061796
 Pt         0.0003043538       -0.0000928298       -0.0000779483
 Pt         0.0004130509        0.0000345903        0.0001165749
 Pt         0.0004656073        0.0002342536        0.0000633900
 Ni         0.0001614675        0.0000896821       -0.0000488530
 Ni         0.0000975233        0.0004299870       -0.0001632152
 Ni         0.0004444603        0.0001504598       -0.0001153103
 Ni         0.0003965723       -0.0000996324        0.0000265757
 Pt        -0.0003238243        0.0002911674       -0.0001158275
 Pt        -0.0000570024        0.0000810022       -0.0002016402
 Ni        -0.0001138999       -0.0001406372        0.0000397149
 Ni        -0.0005674845       -0.0025577466        0.0003605868
 Pt        -0.0003893919       -0.0000842652       -0.0002410916
 Pt         0.0003407060       -0.0000256728       -0.0001210268
 Pt        -0.0000116643        0.0000856627       -0.0002623355
 Pt         0.0005386494        0.0001175160       -0.0002421055
 Pt        -0.0000836922        0.0000628031       -0.0001791061
 Pt         0.0000381242       -0.0002291695       -0.0001708327
 Ni         0.0006125121       -0.0000366981        0.0002868128
 Pt         0.0000618397       -0.0000375542       -0.0001039546
 Pt         0.0000711319        0.0000848896       -0.0002245537
 Pt         0.0000764224        0.0001241023       -0.0000630977
 Ni         0.0001963489        0.0004310560       -0.0001779970
 Pt         0.0000460322        0.0002213069       -0.0001384442
 Ni         0.0005988773        0.0002034429       -0.0003302091
 Pt        -0.0000172751        0.0001497641       -0.0001373647
 Pt         0.0001461039        0.0000216070       -0.0000964482
 Pt         0.0000078120       -0.0000943565       -0.0001229055
 Pt        -0.0004938510       -0.0001415180        0.0000549543
 Pt        -0.0000713629        0.0001308469        0.0000679302
 Pt        -0.0005207898        0.0001708086        0.0001435762
 Pt         0.0002311387       -0.0001081413       -0.0000006507
 Ni        -0.0004640418        0.0000732682        0.0001699635
 Pt         0.0000461684       -0.0000556302        0.0001206398
 Ni        -0.0001611717        0.0001457641        0.0002836436
 Pt         0.0002665991        0.0004100322        0.0000457979
 Ni        -0.0001159490        0.0000373969        0.0002460063
 Ni        -0.0002556567        0.0000366133       -0.0000417134
 Ni        -0.0002367582       -0.0002322108       -0.0001139373
 Ni         0.0000237627        0.0003777101       -0.0001712378
 Pt        -0.0004935114        0.0002897335       -0.0003926534
 Pt        -0.0003772580       -0.0000234304       -0.0003984973
 Pt        -0.0003631136       -0.0001309053       -0.0002967586
 Pt        -0.0003011788        0.0001708380       -0.0002350918
 Pt         0.0002447576        0.0000896847       -0.0003876856
 Pt         0.0002381982        0.0001614702       -0.0005383765
 Pt        -0.0000244512       -0.0000980004       -0.0003033350
 Pt         0.0001375966       -0.0000557941       -0.0003380886
 Pt        -0.0000406428        0.0002573362       -0.0000907569
 Pt         0.0000021906       -0.0001493514        0.0000180572
 Pt        -0.0001723440        0.0001869019       -0.0002211964
 Pt         0.0000378619        0.0001475998       -0.0001221524
