      60
 i =        1, E =     -7949.3259977838
 Pt        -3.0942237672        5.4136146452        8.0986805955
 Pt         1.5959708214        5.4139263800        8.1171101622
 Pt        -0.7351497919        1.3540769840        8.1609314924
 Pt         3.9549267515        1.3528510096        8.1627951111
 Pt         1.5881371112        2.7061204278        8.1320681738
 Pt         6.2781963638        2.7060364195        8.1268351951
 Pt         6.2719891927       -0.0009153323        8.1488944826
 Pt         1.5838489573       -0.0011074566        8.1352049912
 Pt        -0.7283395700        6.7654466393        8.1782439271
 Pt         3.9622251283        6.7643327214        8.1810836771
 Pt        -0.7231982458        4.0621653319        8.1930206834
 Pt         3.9678540103        4.0616507284        8.1953726764
 Ni         0.0329014973        5.4299848328       10.3762316931
 Ni         4.7269503672        2.6952429589       10.3754033741
 Ni         0.0160000000        0.0150000000       10.3730000000
 Ni         4.7050000000        5.4260000000       10.3920000000
 Pt        -2.3310000000        4.0520000000       10.3920000000
 Pt        -2.3180000000        6.7740000000       10.3940000000
 Ni         0.0080000000        2.6910000000       10.3950000000
 Ni         4.6860000000        0.0040000000       10.4010000000
 Pt         2.3650000000        4.0810000000       10.4020000000
 Pt         2.3960000000        1.3360000000       10.4050000000
 Pt         2.3780000000        6.7430000000       10.4060000000
 Pt         7.0860000000        1.3800000000       10.4080000000
 Pt        -3.9070000000        6.7680000000       12.5310000000
 Pt        -1.5630000000        5.4150000000       12.5310000000
 Ni        -1.5630000000        2.7070000000       12.5310000000
 Pt         0.7810000000        4.0610000000       12.5310000000
 Pt         0.7820000000        1.3540000000       12.5310000000
 Pt         0.7820000000        6.7680000000       12.5310000000
 Ni         3.1260000000        0.0000000000       12.5310000000
 Pt         3.1260000000        2.7070000000       12.5310000000
 Ni         3.1260000000        5.4150000000       12.5310000000
 Pt         5.4700000000        4.0610000000       12.5310000000
 Pt         5.4710000000        1.3540000000       12.5310000000
 Pt         7.8150000000        0.0000000000       12.5310000000
 Pt        -0.8320000000        1.3780000000       14.6550000000
 Pt         3.8770000000        6.7430000000       14.6550000000
 Pt         3.8570000000        1.3360000000       14.6570000000
 Pt         3.8930000000        4.0800000000       14.6600000000
 Ni         6.2490000000        2.6890000000       14.6640000000
 Pt        -0.8060000000        6.7750000000       14.6640000000
 Ni         1.5680000000        0.0050000000       14.6650000000
 Pt        -0.7900000000        4.0510000000       14.6670000000
 Ni         1.5530000000        5.4270000000       14.6680000000
 Ni         6.2380000000        0.0140000000       14.6910000000
 Ni        -3.1570000000        5.4280000000       14.6920000000
 Ni         1.5410000000        2.6790000000       14.6930000000
 Pt         2.2960000000        4.0600000000       16.8370000000
 Pt        -2.3960000000        4.0570000000       16.8390000000
 Pt         2.3022487260        6.7642822898       16.8826825937
 Pt        -2.3847447037        6.7657666970       16.8862307463
 Pt         4.6796962484       -0.0005217541       16.9248905975
 Pt        -0.0077424546       -0.0000398765       16.9128050778
 Pt        -0.0137431749        2.7066557654       16.9329653358
 Pt         4.6760275470        2.7054970895       16.9274229752
 Pt         6.9991749545        1.3533172406       16.9033274036
 Pt         2.3100329981        1.3521096010       16.9060495723
 Pt         4.6683273912        5.4147310142       16.9432091196
 Pt        -0.0189828803        5.4135076041       16.9565686473
      60
 i =        2, E =     -7949.3262921113
 Pt        -3.1001197717        5.4148993690        8.1129000310
 Pt         1.5912440309        5.4146438345        8.1251333118
 Pt        -0.7299468122        1.3537309517        8.1715473562
 Pt         3.9591209375        1.3518738173        8.1745018693
 Pt         1.5889248412        2.7045934352        8.1314940539
 Pt         6.2802357787        2.7033992571        8.1221216531
 Pt         6.2770265397        0.0005781451        8.1400528790
 Pt         1.5908538867        0.0014714586        8.1257966757
 Pt        -0.7290389779        6.7687385506        8.1758885805
 Pt         3.9590377559        6.7679690520        8.1785123262
 Pt        -0.7278346027        4.0597623507        8.1822211897
 Pt         3.9597756874        4.0594771831        8.1844731121
 Ni         0.0308628879        5.4269237624       10.3766854266
 Ni         4.7248237976        2.6920323988       10.3760052652
 Ni         0.0160000000        0.0150000000       10.3730000000
 Ni         4.7050000000        5.4260000000       10.3920000000
 Pt        -2.3310000000        4.0520000000       10.3920000000
 Pt        -2.3180000000        6.7740000000       10.3940000000
 Ni         0.0080000000        2.6910000000       10.3950000000
 Ni         4.6860000000        0.0040000000       10.4010000000
 Pt         2.3650000000        4.0810000000       10.4020000000
 Pt         2.3960000000        1.3360000000       10.4050000000
 Pt         2.3780000000        6.7430000000       10.4060000000
 Pt         7.0860000000        1.3800000000       10.4080000000
 Pt        -3.9070000000        6.7680000000       12.5310000000
 Pt        -1.5630000000        5.4150000000       12.5310000000
 Ni        -1.5630000000        2.7070000000       12.5310000000
 Pt         0.7810000000        4.0610000000       12.5310000000
 Pt         0.7820000000        1.3540000000       12.5310000000
 Pt         0.7820000000        6.7680000000       12.5310000000
 Ni         3.1260000000       -0.0000000000       12.5310000000
 Pt         3.1260000000        2.7070000000       12.5310000000
 Ni         3.1260000000        5.4150000000       12.5310000000
 Pt         5.4700000000        4.0610000000       12.5310000000
 Pt         5.4710000000        1.3540000000       12.5310000000
 Pt         7.8150000000        0.0000000000       12.5310000000
 Pt        -0.8320000000        1.3780000000       14.6550000000
 Pt         3.8770000000        6.7430000000       14.6550000000
 Pt         3.8570000000        1.3360000000       14.6570000000
 Pt         3.8930000000        4.0800000000       14.6600000000
 Ni         6.2490000000        2.6890000000       14.6640000000
 Pt        -0.8060000000        6.7750000000       14.6640000000
 Ni         1.5680000000        0.0050000000       14.6650000000
 Pt        -0.7900000000        4.0510000000       14.6670000000
 Ni         1.5530000000        5.4270000000       14.6680000000
 Ni         6.2380000000        0.0140000000       14.6910000000
 Ni        -3.1570000000        5.4280000000       14.6920000000
 Ni         1.5410000000        2.6790000000       14.6930000000
 Pt         2.2960000000        4.0600000000       16.8370000000
 Pt        -2.3960000000        4.0570000000       16.8390000000
 Pt         2.3041290829        6.7680740726       16.8846623277
 Pt        -2.3847690833        6.7679552136       16.8881776275
 Pt         4.6724306173       -0.0005776988       16.9352014893
 Pt        -0.0137232820       -0.0005881455       16.9227915443
 Pt        -0.0186475905        2.7024594082       16.9363497950
 Pt         4.6723686705        2.7024692005       16.9283366775
 Pt         6.9929477060        1.3518081523       16.8925283093
 Pt         2.3043970991        1.3499031373       16.8943511401
 Pt         4.6701093742        5.4155707272       16.9355690400
 Pt        -0.0165948996        5.4147522149       16.9424668588
      60
 i =        3, E =     -7949.3263098255
 Pt        -3.1017442107        5.4142944263        8.1138126511
 Pt         1.5902020077        5.4144495935        8.1247071232
 Pt        -0.7293809204        1.3539731709        8.1710681831
 Pt         3.9607527896        1.3525855686        8.1741511592
 Pt         1.5886969080        2.7059021279        8.1312734623
 Pt         6.2799467240        2.7052196374        8.1223095554
 Pt         6.2775820143       -0.0000444152        8.1397443546
 Pt         1.5907855539        0.0003593201        8.1267394057
 Pt        -0.7293710113        6.7679925301        8.1756460624
 Pt         3.9592152100        6.7675410732        8.1783738568
 Pt        -0.7290600647        4.0604291878        8.1815526818
 Pt         3.9596791309        4.0604439560        8.1837026033
 Ni         0.0291784661        5.4273609377       10.3764783390
 Ni         4.7241909946        2.6936300106       10.3757868960
 Ni         0.0160000000        0.0150000000       10.3730000000
 Ni         4.7050000000        5.4260000000       10.3920000000
 Pt        -2.3310000000        4.0520000000       10.3920000000
 Pt        -2.3180000000        6.7740000000       10.3940000000
 Ni         0.0080000000        2.6910000000       10.3950000000
 Ni         4.6860000000        0.0040000000       10.4010000000
 Pt         2.3650000000        4.0810000000       10.4020000000
 Pt         2.3960000000        1.3360000000       10.4050000000
 Pt         2.3780000000        6.7430000000       10.4060000000
 Pt         7.0860000000        1.3800000000       10.4080000000
 Pt        -3.9070000000        6.7680000000       12.5310000000
 Pt        -1.5630000000        5.4150000000       12.5310000000
 Ni        -1.5630000000        2.7070000000       12.5310000000
 Pt         0.7810000000        4.0610000000       12.5310000000
 Pt         0.7820000000        1.3540000000       12.5310000000
 Pt         0.7820000000        6.7680000000       12.5310000000
 Ni         3.1260000000       -0.0000000000       12.5310000000
 Pt         3.1260000000        2.7070000000       12.5310000000
 Ni         3.1260000000        5.4150000000       12.5310000000
 Pt         5.4700000000        4.0610000000       12.5310000000
 Pt         5.4710000000        1.3540000000       12.5310000000
 Pt         7.8150000000        0.0000000000       12.5310000000
 Pt        -0.8320000000        1.3780000000       14.6550000000
 Pt         3.8770000000        6.7430000000       14.6550000000
 Pt         3.8570000000        1.3360000000       14.6570000000
 Pt         3.8930000000        4.0800000000       14.6600000000
 Ni         6.2490000000        2.6890000000       14.6640000000
 Pt        -0.8060000000        6.7750000000       14.6640000000
 Ni         1.5680000000        0.0050000000       14.6650000000
 Pt        -0.7900000000        4.0510000000       14.6670000000
 Ni         1.5530000000        5.4270000000       14.6680000000
 Ni         6.2380000000        0.0140000000       14.6910000000
 Ni        -3.1570000000        5.4280000000       14.6920000000
 Ni         1.5410000000        2.6790000000       14.6930000000
 Pt         2.2960000000        4.0600000000       16.8370000000
 Pt        -2.3960000000        4.0570000000       16.8390000000
 Pt         2.3021670695        6.7673863940       16.8847101478
 Pt        -2.3865629738        6.7671797667       16.8880493890
 Pt         4.6706162540       -0.0010244127       16.9348444091
 Pt        -0.0159788108       -0.0009763198       16.9237767361
 Pt        -0.0201108680        2.7036926655       16.9357738322
 Pt         4.6706335364        2.7034140484       16.9281659690
 Pt         6.9903643178        1.3520568991       16.8927684864
 Pt         2.3014270971        1.3502367650       16.8944698202
 Pt         4.6689299796        5.4148719375       16.9361554968
 Pt        -0.0169200996        5.4141020856       16.9417671844
      60
 i =        4, E =     -7949.3263178951
 Pt        -3.1023286034        5.4145658049        8.1137391244
 Pt         1.5895849933        5.4145707958        8.1242001329
 Pt        -0.7295056354        1.3542538150        8.1704851553
 Pt         3.9607346200        1.3528324663        8.1738466038
 Pt         1.5884460305        2.7062672667        8.1312627607
 Pt         6.2796207084        2.7056137065        8.1225394055
 Pt         6.2774578522        0.0000515103        8.1398492493
 Pt         1.5904073581        0.0005720825        8.1278435790
 Pt        -0.7295607230        6.7682330066        8.1755701451
 Pt         3.9588417969        6.7678402141        8.1783372859
 Pt        -0.7294393877        4.0606719906        8.1809865826
 Pt         3.9592201837        4.0606650831        8.1833176631
 Ni         0.0278089366        5.4267190589       10.3762479930
 Ni         4.7237606288        2.6937831113       10.3756587384
 Ni         0.0160000000        0.0150000000       10.3730000000
 Ni         4.7050000000        5.4260000000       10.3920000000
 Pt        -2.3310000000        4.0520000000       10.3920000000
 Pt        -2.3180000000        6.7740000000       10.3940000000
 Ni         0.0080000000        2.6910000000       10.3950000000
 Ni         4.6860000000        0.0040000000       10.4010000000
 Pt         2.3650000000        4.0810000000       10.4020000000
 Pt         2.3960000000        1.3360000000       10.4050000000
 Pt         2.3780000000        6.7430000000       10.4060000000
 Pt         7.0860000000        1.3800000000       10.4080000000
 Pt        -3.9070000000        6.7680000000       12.5310000000
 Pt        -1.5630000000        5.4150000000       12.5310000000
 Ni        -1.5630000000        2.7070000000       12.5310000000
 Pt         0.7810000000        4.0610000000       12.5310000000
 Pt         0.7820000000        1.3540000000       12.5310000000
 Pt         0.7820000000        6.7680000000       12.5310000000
 Ni         3.1260000000       -0.0000000000       12.5310000000
 Pt         3.1260000000        2.7070000000       12.5310000000
 Ni         3.1260000000        5.4150000000       12.5310000000
 Pt         5.4700000000        4.0610000000       12.5310000000
 Pt         5.4710000000        1.3540000000       12.5310000000
 Pt         7.8150000000        0.0000000000       12.5310000000
 Pt        -0.8320000000        1.3780000000       14.6550000000
 Pt         3.8770000000        6.7430000000       14.6550000000
 Pt         3.8570000000        1.3360000000       14.6570000000
 Pt         3.8930000000        4.0800000000       14.6600000000
 Ni         6.2490000000        2.6890000000       14.6640000000
 Pt        -0.8060000000        6.7750000000       14.6640000000
 Ni         1.5680000000        0.0050000000       14.6650000000
 Pt        -0.7900000000        4.0510000000       14.6670000000
 Ni         1.5530000000        5.4270000000       14.6680000000
 Ni         6.2380000000        0.0140000000       14.6910000000
 Ni        -3.1570000000        5.4280000000       14.6920000000
 Ni         1.5410000000        2.6790000000       14.6930000000
 Pt         2.2960000000        4.0600000000       16.8370000000
 Pt        -2.3960000000        4.0570000000       16.8390000000
 Pt         2.2997666293        6.7673259669       16.8843750380
 Pt        -2.3891761607        6.7670859958       16.8875270120
 Pt         4.6681754281       -0.0011262921       16.9343089425
 Pt        -0.0186944149       -0.0011745382       16.9243146883
 Pt        -0.0217555242        2.7038699065       16.9355675493
 Pt         4.6688076931        2.7035902656       16.9282884019
 Pt         6.9878740543        1.3520283119       16.8928586891
 Pt         2.2987647080        1.3500202862       16.8944421311
 Pt         4.6672439452        5.4146623488       16.9371249918
 Pt        -0.0184620856        5.4140279371       16.9420118511
      60
 i =        5, E =     -7949.3263214899
 Pt        -3.1025276991        5.4149173132        8.1135610948
 Pt         1.5893680804        5.4149194624        8.1242659883
 Pt        -0.7302587497        1.3546181630        8.1702722527
 Pt         3.9600031403        1.3530749891        8.1736818701
 Pt         1.5880045486        2.7064553367        8.1313302800
 Pt         6.2791632518        2.7056912207        8.1227007001
 Pt         6.2768813519        0.0004637356        8.1400996548
 Pt         1.5897900006        0.0010633734        8.1282880104
 Pt        -0.7299611923        6.7686690451        8.1755380872
 Pt         3.9582791199        6.7681906170        8.1783178940
 Pt        -0.7298217732        4.0608761426        8.1806749969
 Pt         3.9587733786        4.0609160654        8.1832442152
 Ni         0.0265487075        5.4260494086       10.3762557426
 Ni         4.7235929527        2.6935940469       10.3756113274
 Ni         0.0160000000        0.0150000000       10.3730000000
 Ni         4.7050000000        5.4260000000       10.3920000000
 Pt        -2.3310000000        4.0520000000       10.3920000000
 Pt        -2.3180000000        6.7740000000       10.3940000000
 Ni         0.0080000000        2.6910000000       10.3950000000
 Ni         4.6860000000        0.0040000000       10.4010000000
 Pt         2.3650000000        4.0810000000       10.4020000000
 Pt         2.3960000000        1.3360000000       10.4050000000
 Pt         2.3780000000        6.7430000000       10.4060000000
 Pt         7.0860000000        1.3800000000       10.4080000000
 Pt        -3.9070000000        6.7680000000       12.5310000000
 Pt        -1.5630000000        5.4150000000       12.5310000000
 Ni        -1.5630000000        2.7070000000       12.5310000000
 Pt         0.7810000000        4.0610000000       12.5310000000
 Pt         0.7820000000        1.3540000000       12.5310000000
 Pt         0.7820000000        6.7680000000       12.5310000000
 Ni         3.1260000000       -0.0000000000       12.5310000000
 Pt         3.1260000000        2.7070000000       12.5310000000
 Ni         3.1260000000        5.4150000000       12.5310000000
 Pt         5.4700000000        4.0610000000       12.5310000000
 Pt         5.4710000000        1.3540000000       12.5310000000
 Pt         7.8150000000        0.0000000000       12.5310000000
 Pt        -0.8320000000        1.3780000000       14.6550000000
 Pt         3.8770000000        6.7430000000       14.6550000000
 Pt         3.8570000000        1.3360000000       14.6570000000
 Pt         3.8930000000        4.0800000000       14.6600000000
 Ni         6.2490000000        2.6890000000       14.6640000000
 Pt        -0.8060000000        6.7750000000       14.6640000000
 Ni         1.5680000000        0.0050000000       14.6650000000
 Pt        -0.7900000000        4.0510000000       14.6670000000
 Ni         1.5530000000        5.4270000000       14.6680000000
 Ni         6.2380000000        0.0140000000       14.6910000000
 Ni        -3.1570000000        5.4280000000       14.6920000000
 Ni         1.5410000000        2.6790000000       14.6930000000
 Pt         2.2960000000        4.0600000000       16.8370000000
 Pt        -2.3960000000        4.0570000000       16.8390000000
 Pt         2.2974993686        6.7674323413       16.8838070653
 Pt        -2.3915993073        6.7672254968       16.8868649269
 Pt         4.6656398849       -0.0010573006       16.9344213049
 Pt        -0.0213380707       -0.0011639628       16.9247635389
 Pt        -0.0232141250        2.7037223559       16.9359182954
 Pt         4.6673392090        2.7035316813       16.9287516500
 Pt         6.9857888201        1.3519863471       16.8924359440
 Pt         2.2966781830        1.3498638146       16.8939636280
 Pt         4.6655405099        5.4144941089       16.9377912040
 Pt        -0.0202747861        5.4138748905       16.9426834684
      60
 i =        6, E =     -7949.3263219626
 Pt        -3.1026144800        5.4151341707        8.1134593563
 Pt         1.5891432445        5.4150927238        8.1245447774
 Pt        -0.7305762714        1.3547388242        8.1703092163
 Pt         3.9594910725        1.3531963054        8.1736436878
 Pt         1.5876815658        2.7064926477        8.1314259287
 Pt         6.2788526184        2.7056853280        8.1227037602
 Pt         6.2764385318        0.0006553249        8.1402502528
 Pt         1.5894697443        0.0012967875        8.1281119304
 Pt        -0.7302239272        6.7688629550        8.1755352566
 Pt         3.9580484152        6.7683627250        8.1783010086
 Pt        -0.7299459597        4.0609953392        8.1807235202
 Pt         3.9585657851        4.0610167590        8.1834038691
 Ni         0.0262120569        5.4257744896       10.3763639921
 Ni         4.7237036738        2.6934875750       10.3756495451
 Ni         0.0160000000        0.0150000000       10.3730000000
 Ni         4.7050000000        5.4260000000       10.3920000000
 Pt        -2.3310000000        4.0520000000       10.3920000000
 Pt        -2.3180000000        6.7740000000       10.3940000000
 Ni         0.0080000000        2.6910000000       10.3950000000
 Ni         4.6860000000        0.0040000000       10.4010000000
 Pt         2.3650000000        4.0810000000       10.4020000000
 Pt         2.3960000000        1.3360000000       10.4050000000
 Pt         2.3780000000        6.7430000000       10.4060000000
 Pt         7.0860000000        1.3800000000       10.4080000000
 Pt        -3.9070000000        6.7680000000       12.5310000000
 Pt        -1.5630000000        5.4150000000       12.5310000000
 Ni        -1.5630000000        2.7070000000       12.5310000000
 Pt         0.7810000000        4.0610000000       12.5310000000
 Pt         0.7820000000        1.3540000000       12.5310000000
 Pt         0.7820000000        6.7680000000       12.5310000000
 Ni         3.1260000000       -0.0000000000       12.5310000000
 Pt         3.1260000000        2.7070000000       12.5310000000
 Ni         3.1260000000        5.4150000000       12.5310000000
 Pt         5.4700000000        4.0610000000       12.5310000000
 Pt         5.4710000000        1.3540000000       12.5310000000
 Pt         7.8150000000        0.0000000000       12.5310000000
 Pt        -0.8320000000        1.3780000000       14.6550000000
 Pt         3.8770000000        6.7430000000       14.6550000000
 Pt         3.8570000000        1.3360000000       14.6570000000
 Pt         3.8930000000        4.0800000000       14.6600000000
 Ni         6.2490000000        2.6890000000       14.6640000000
 Pt        -0.8060000000        6.7750000000       14.6640000000
 Ni         1.5680000000        0.0050000000       14.6650000000
 Pt        -0.7900000000        4.0510000000       14.6670000000
 Ni         1.5530000000        5.4270000000       14.6680000000
 Ni         6.2380000000        0.0140000000       14.6910000000
 Ni        -3.1570000000        5.4280000000       14.6920000000
 Ni         1.5410000000        2.6790000000       14.6930000000
 Pt         2.2960000000        4.0600000000       16.8370000000
 Pt        -2.3960000000        4.0570000000       16.8390000000
 Pt         2.2969879337        6.7674319034       16.8835726433
 Pt        -2.3920334873        6.7672794788       16.8866785042
 Pt         4.6651227999       -0.0010591198       16.9347524857
 Pt        -0.0217745142       -0.0011321903       16.9248105822
 Pt        -0.0234383263        2.7036850202       16.9361939047
 Pt         4.6671392214        2.7034969807       16.9289805628
 Pt         6.9854105229        1.3519229603       16.8921829908
 Pt         2.2963533513        1.3498304313       16.8937519475
 Pt         4.6652675450        5.4145351800       16.9377548060
 Pt        -0.0206796226        5.4138790365       16.9430128411
      60
 i =        7, E =     -7949.3267385542
 Pt        -3.1026144800        5.4151341707        8.1134593563
 Pt         1.5891432445        5.4150927238        8.1245447774
 Pt        -0.7305762714        1.3547388242        8.1703092163
 Pt         3.9594910725        1.3531963054        8.1736436878
 Pt         1.5876815658        2.7064926477        8.1314259287
 Pt         6.2788526184        2.7056853280        8.1227037602
 Pt         6.2764385318        0.0006553249        8.1402502528
 Pt         1.5894697443        0.0012967875        8.1281119304
 Pt        -0.7302239272        6.7688629550        8.1755352566
 Pt         3.9580484152        6.7683627250        8.1783010086
 Pt        -0.7299459597        4.0609953392        8.1807235202
 Pt         3.9585657851        4.0610167590        8.1834038691
 Ni         0.0262120569        5.4257744896       10.3763639921
 Ni         4.7237036738        2.6934875750       10.3756495451
 Ni         0.0160000000        0.0150000000       10.3730000000
 Ni         4.7050000000        5.4260000000       10.3920000000
 Pt        -2.3310000000        4.0520000000       10.3920000000
 Pt        -2.3180000000        6.7740000000       10.3940000000
 Ni         0.0080000000        2.6910000000       10.3950000000
 Ni         4.6860000000        0.0040000000       10.4010000000
 Pt         2.3650000000        4.0810000000       10.4020000000
 Pt         2.3960000000        1.3360000000       10.4050000000
 Pt         2.3780000000        6.7430000000       10.4060000000
 Pt         7.0860000000        1.3800000000       10.4080000000
 Pt        -3.9070000000        6.7680000000       12.5310000000
 Pt        -1.5630000000        5.4150000000       12.5310000000
 Ni        -1.5630000000        2.7070000000       12.5310000000
 Pt         0.7810000000        4.0610000000       12.5310000000
 Pt         0.7820000000        1.3540000000       12.5310000000
 Pt         0.7820000000        6.7680000000       12.5310000000
 Ni         3.1260000000       -0.0000000000       12.5310000000
 Pt         3.1260000000        2.7070000000       12.5310000000
 Ni         3.1260000000        5.4150000000       12.5310000000
 Pt         5.4700000000        4.0610000000       12.5310000000
 Pt         5.4710000000        1.3540000000       12.5310000000
 Pt         7.8150000000        0.0000000000       12.5310000000
 Pt        -0.8320000000        1.3780000000       14.6550000000
 Pt         3.8770000000        6.7430000000       14.6550000000
 Pt         3.8570000000        1.3360000000       14.6570000000
 Pt         3.8930000000        4.0800000000       14.6600000000
 Ni         6.2490000000        2.6890000000       14.6640000000
 Pt        -0.8060000000        6.7750000000       14.6640000000
 Ni         1.5680000000        0.0050000000       14.6650000000
 Pt        -0.7900000000        4.0510000000       14.6670000000
 Ni         1.5530000000        5.4270000000       14.6680000000
 Ni         6.2380000000        0.0140000000       14.6910000000
 Ni        -3.1570000000        5.4280000000       14.6920000000
 Ni         1.5410000000        2.6790000000       14.6930000000
 Pt         2.2960000000        4.0600000000       16.8370000000
 Pt        -2.3960000000        4.0570000000       16.8390000000
 Pt         2.2969879337        6.7674319034       16.8835726433
 Pt        -2.3920334873        6.7672794788       16.8866785042
 Pt         4.6651227999       -0.0010591198       16.9347524857
 Pt        -0.0217745142       -0.0011321903       16.9248105822
 Pt        -0.0234383263        2.7036850202       16.9361939047
 Pt         4.6671392214        2.7034969807       16.9289805628
 Pt         6.9854105229        1.3519229603       16.8921829908
 Pt         2.2963533513        1.3498304313       16.8937519475
 Pt         4.6652675450        5.4145351800       16.9377548060
 Pt        -0.0206796226        5.4138790365       16.9430128411
