      60
 i =        1, E =     -7949.3286679391
 Pt        -3.0944745729        5.4137641679        8.0968956293
 Pt         1.5940963322        5.4134741168        8.1152316017
 Pt        -0.7342248236        1.3530916871        8.1600657628
 Pt         3.9545407450        1.3541610896        8.1597720497
 Pt         1.5881125540        2.7056449196        8.1286343705
 Pt         6.2767978098        2.7065949665        8.1251526606
 Pt         6.2723337441       -0.0008533530        8.1443563747
 Pt         1.5830892763       -0.0014678006        8.1338576440
 Pt        -0.7283216911        6.7633013161        8.1754136023
 Pt         3.9639959496        6.7655415800        8.1809157690
 Pt        -0.7231492394        4.0635571350        8.1896548407
 Pt         3.9687225366        4.0607408411        8.1927741845
 Ni         0.0343994245        5.4329538754       10.3783912691
 Ni         4.7268978149        2.6947734842       10.3765470839
 Ni         0.0356118951        0.0223551826       10.3768677027
 Ni         4.7043436323        5.4219420349       10.3811313509
 Pt        -2.3231043621        4.0512399866       10.3788977589
 Pt        -2.3166462800        6.7763470902       10.3797623675
 Ni         0.0119511961        2.7098707641       10.3785257848
 Ni         4.6873596920        0.0084742787       10.3756110395
 Pt         2.3708510859        4.0794755398       10.3836703700
 Pt         2.3915846619        1.3377977582       10.3876282610
 Pt         2.3811231159        6.7473348766       10.3844625887
 Pt         7.0825167830        1.3758634757       10.3875954398
 Pt        -3.9056771697        6.7695572973       12.5314437700
 Pt        -1.5629109300        5.4077971586       12.5305220872
 Ni        -1.5564002199        2.6976705902       12.5288518352
 Pt         0.7835901019        4.0626426044       12.5296609801
 Pt         0.7825082900        1.3542443920       12.5331447866
 Pt         0.7798152504        6.7712105045       12.5323021436
 Ni         3.1114209276       -0.0045025756       12.5283810154
 Pt         3.1269559893        2.7153509169       12.5305286611
 Ni         3.1331714692        5.4255099085       12.5295872300
 Pt         5.4739708617        4.0588251806       12.5296878128
 Pt         5.4677545529        1.3524574438       12.5313352973
 Pt         7.8160003648       -0.0035248511       12.5292134145
 Pt        -0.8211922054        1.3766155962       14.6744215160
 Pt         3.8774322629        6.7465416525       14.6768088078
 Pt         3.8650478996        1.3353413001       14.6735692503
 Pt         3.8874691860        4.0784001727       14.6777359611
 Ni         6.2536583041        2.7003452714       14.6851217112
 Pt        -0.8062499582        6.7787768903       14.6791307101
 Ni         1.5710081097        0.0064246536       14.6889002973
 Pt        -0.7971340941        4.0502675815       14.6805746846
 Ni         1.5552262002        5.4215180210       14.6835473882
 Ni         6.2405354628        0.0216658598       14.6858537426
 Ni        -3.1575550395        5.4152324293       14.6831187431
 Ni         1.5410817003        2.7016591549       14.6841190961
 Pt         2.2962128520        4.0611079083       16.8716632989
 Pt        -2.3904735512        4.0634345259       16.8728243497
 Pt         2.3006000670        6.7658117715       16.8834088559
 Pt        -2.3860630886        6.7632779651       16.8869050256
 Pt         4.6815414138       -0.0010390582       16.9253461916
 Pt        -0.0078283121       -0.0003472243       16.9161246904
 Pt        -0.0122820621        2.7066585572       16.9336889911
 Pt         4.6762284612        2.7061331640       16.9312373927
 Pt         6.9982609642        1.3534162327       16.9054301844
 Pt         2.3092135484        1.3553697200       16.9067716591
 Pt         4.6699934240        5.4141185956       16.9447457096
 Pt        -0.0189555206        5.4138926646       16.9592135859
      60
 i =        2, E =     -7949.3300084582
 Pt        -3.1021804321        5.4143844707        8.1101330715
 Pt         1.5895829451        5.4149156748        8.1185232616
 Pt        -0.7271842893        1.3538807337        8.1695222945
 Pt         3.9610546376        1.3527351308        8.1686057487
 Pt         1.5869023744        2.7057868750        8.1172534877
 Pt         6.2787784620        2.7054380662        8.1106978315
 Pt         6.2747780329       -0.0001747525        8.1180203668
 Pt         1.5894402396        0.0000199399        8.1064084715
 Pt        -0.7275655915        6.7680735379        8.1681301506
 Pt         3.9631972742        6.7677912125        8.1712734473
 Pt        -0.7263676058        4.0612757599        8.1683994470
 Pt         3.9636779513        4.0603570723        8.1707959760
 Ni         0.0355531405        5.4298374188       10.3770557426
 Ni         4.7265263185        2.6957980017       10.3764670541
 Ni         0.0403485294        0.0147515574       10.3762401147
 Ni         4.7013853803        5.4183488969       10.3835132836
 Pt        -2.3163937371        4.0472304153       10.3754626267
 Pt        -2.3140541953        6.7835718769       10.3771233637
 Ni         0.0048495337        2.7068486373       10.3833712749
 Ni         4.6927645899        0.0159342496       10.3845457427
 Pt         2.3759666517        4.0766634718       10.3783495442
 Pt         2.3812663720        1.3385203168       10.3816741655
 Pt         2.3797325774        6.7563066589       10.3813049325
 Pt         7.0732388698        1.3698924716       10.3813926003
 Pt        -3.9044460067        6.7687891733       12.5319182274
 Pt        -1.5613131720        5.4115419486       12.5304828345
 Ni        -1.5569843747        2.7042892462       12.5247442977
 Pt         0.7841495717        4.0640194188       12.5294669276
 Pt         0.7863078404        1.3562636056       12.5324735216
 Pt         0.7831088164        6.7719684292       12.5319429424
 Ni         3.1220545451       -0.0070864051       12.5254391385
 Pt         3.1282104649        2.7125576667       12.5313555358
 Ni         3.1311276513        5.4191917246       12.5255833153
 Pt         5.4740623472        4.0595676230       12.5304674904
 Pt         5.4715577837        1.3533726623       12.5301668119
 Pt         7.8180398619       -0.0013065675       12.5315006416
 Pt        -0.8107646334        1.3718642269       14.6790309824
 Pt         3.8790475090        6.7533487526       14.6798836948
 Pt         3.8729023963        1.3360843486       14.6788243213
 Pt         3.8828691770        4.0767622568       14.6807951791
 Ni         6.2488517297        2.6975750463       14.6805163730
 Pt        -0.8058879704        6.7843137888       14.6828958652
 Ni         1.5694984227        0.0090257646       14.6798737984
 Pt        -0.8050175729        4.0461943848       14.6824516867
 Ni         1.5540803632        5.4227367365       14.6814242973
 Ni         6.2378024285        0.0259551343       14.6875784580
 Ni        -3.1512092237        5.4134200382       14.6883251007
 Ni         1.5379596787        2.7136999012       14.6883250115
 Pt         2.3011882311        4.0614942022       16.8946106253
 Pt        -2.3871588702        4.0601545753       16.8948110229
 Pt         2.3005679594        6.7681680679       16.8927965052
 Pt        -2.3865834648        6.7679079786       16.8948192736
 Pt         4.6749323830       -0.0000128441       16.9509365108
 Pt        -0.0104820312       -0.0000070247       16.9439557605
 Pt        -0.0146007487        2.7059862939       16.9493422944
 Pt         4.6766361877        2.7052510973       16.9433910134
 Pt         6.9920130185        1.3544215835       16.8962063783
 Pt         2.3031360164        1.3526634064       16.8945856249
 Pt         4.6742790197        5.4145298259       16.9425065529
 Pt        -0.0123624162        5.4148476801       16.9483159249
      60
 i =        3, E =     -7949.3302949626
 Pt        -3.1022143915        5.4145406917        8.1097236033
 Pt         1.5896886438        5.4149764267        8.1131123412
 Pt        -0.7257920953        1.3532694093        8.1666912267
 Pt         3.9621072635        1.3537705367        8.1652729634
 Pt         1.5877827578        2.7076387385        8.1100814623
 Pt         6.2802086717        2.7065740381        8.1056050205
 Pt         6.2776429698       -0.0003347959        8.1076295322
 Pt         1.5919118547        0.0002543988        8.1019159522
 Pt        -0.7273530801        6.7695584695        8.1650127450
 Pt         3.9619218321        6.7694089630        8.1665496205
 Pt        -0.7282283767        4.0613579063        8.1632332111
 Pt         3.9607969040        4.0598184612        8.1647278224
 Ni         0.0356540124        5.4306603516       10.3744619405
 Ni         4.7249888794        2.6948385137       10.3744284825
 Ni         0.0354186804        0.0129786018       10.3747156434
 Ni         4.6970099553        5.4182478858       10.3822931572
 Pt        -2.3128761674        4.0464077231       10.3762972678
 Pt        -2.3127697881        6.7853755573       10.3748773789
 Ni         0.0055281228        2.7077084100       10.3827437341
 Ni         4.7006555159        0.0248148166       10.3854364868
 Pt         2.3784018795        4.0769863809       10.3785885413
 Pt         2.3759894046        1.3392221183       10.3771331365
 Pt         2.3780169665        6.7572536426       10.3784369727
 Pt         7.0683614939        1.3695555471       10.3773159954
 Pt        -3.9037406990        6.7691781303       12.5315675958
 Pt        -1.5599777686        5.4132119735       12.5299883193
 Ni        -1.5512902026        2.7004866998       12.5178428623
 Pt         0.7861588599        4.0653418530       12.5298624979
 Pt         0.7869595119        1.3560765743       12.5321811409
 Pt         0.7840531480        6.7732623556       12.5319205659
 Ni         3.1169500176       -0.0086485167       12.5190489385
 Pt         3.1286197699        2.7104786461       12.5300868767
 Ni         3.1356125989        5.4232754569       12.5196930302
 Pt         5.4757012611        4.0599971705       12.5303336636
 Pt         5.4722586953        1.3549111816       12.5315124619
 Pt         7.8194445844        0.0011645092       12.5318590621
 Pt        -0.8050784704        1.3712342351       14.6829145724
 Pt         3.8802002827        6.7552768553       14.6822887598
 Pt         3.8789647706        1.3371752376       14.6791861818
 Pt         3.8795746447        4.0782991144       14.6807449941
 Ni         6.2480982574        2.7003276269       14.6799212092
 Pt        -0.8059088601        6.7864667660       14.6821892787
 Ni         1.5690613666        0.0100075883       14.6806013221
 Pt        -0.8092964336        4.0442955596       14.6814567067
 Ni         1.5542544154        5.4209347316       14.6802862147
 Ni         6.2345702163        0.0275516556       14.6894509810
 Ni        -3.1501324465        5.4155703524       14.6902232408
 Ni         1.5380982027        2.7107766865       14.6904907538
 Pt         2.3033024764        4.0611749613       16.9005615508
 Pt        -2.3860558503        4.0603553035       16.9008272303
 Pt         2.3020506484        6.7696673074       16.8965399634
 Pt        -2.3864334443        6.7682560328       16.8985483606
 Pt         4.6719767922        0.0003213195       16.9562490146
 Pt        -0.0136315243       -0.0003874710       16.9528691258
 Pt        -0.0158812868        2.7073725039       16.9547330044
 Pt         4.6751669073        2.7069474821       16.9506718439
 Pt         6.9911299918        1.3539794304       16.8987962661
 Pt         2.3012042251        1.3539636430       16.8964792989
 Pt         4.6744257589        5.4144577974       16.9479244288
 Pt        -0.0127360750        5.4146441568       16.9503105060
      60
 i =        4, E =     -7949.3304262263
 Pt        -3.1010784114        5.4149349833        8.1066130742
 Pt         1.5904093173        5.4151536098        8.1059763541
 Pt        -0.7258197441        1.3538214995        8.1608125708
 Pt         3.9620445019        1.3552673734        8.1589774445
 Pt         1.5884480506        2.7094682954        8.1037259756
 Pt         6.2805581118        2.7086697497        8.1026629433
 Pt         6.2797377381        0.0001460892        8.0999995229
 Pt         1.5924209524        0.0002520680        8.1012325232
 Pt        -0.7266978749        6.7699430487        8.1623841731
 Pt         3.9619289539        6.7698099250        8.1623737752
 Pt        -0.7280284583        4.0626569869        8.1613908607
 Pt         3.9608702982        4.0603572408        8.1616732862
 Ni         0.0365306205        5.4302261804       10.3726894828
 Ni         4.7232910729        2.6936347860       10.3724009691
 Ni         0.0338976029        0.0116097374       10.3728133121
 Ni         4.6932467218        5.4167174172       10.3817834733
 Pt        -2.3106781346        4.0473975200       10.3739602652
 Pt        -2.3116995129        6.7849030312       10.3725006221
 Ni         0.0067128366        2.7079775847       10.3813695981
 Ni         4.7092075977        0.0295292526       10.3800453842
 Pt         2.3788918702        4.0777957544       10.3748691803
 Pt         2.3730604795        1.3413757352       10.3720842803
 Pt         2.3771035700        6.7580576151       10.3746202466
 Pt         7.0654612201        1.3696755384       10.3728370700
 Pt        -3.9032153943        6.7697404570       12.5312013199
 Pt        -1.5587001306        5.4166310759       12.5287896689
 Ni        -1.5483196913        2.7058326203       12.5068160336
 Pt         0.7879051389        4.0659528151       12.5308891904
 Pt         0.7872237477        1.3561931941       12.5318085570
 Pt         0.7861914360        6.7743773873       12.5315988842
 Ni         3.1203748627       -0.0079091815       12.5085075187
 Pt         3.1295416133        2.7075806250       12.5286404275
 Ni         3.1366385060        5.4193468783       12.5092101825
 Pt         5.4765523697        4.0611222224       12.5307179720
 Pt         5.4751014305        1.3572298061       12.5313342599
 Pt         7.8197427752        0.0034779216       12.5310414140
 Pt        -0.8017533155        1.3720864286       14.6854233796
 Pt         3.8809751034        6.7550419571       14.6833428283
 Pt         3.8823283173        1.3392949099       14.6816454489
 Pt         3.8769725462        4.0804308465       14.6811096013
 Ni         6.2459001325        2.7017515129       14.6815272852
 Pt        -0.8068685922        6.7870604912       14.6823721184
 Ni         1.5704785743        0.0110988045       14.6808154130
 Pt        -0.8121542639        4.0439572192       14.6812556436
 Ni         1.5534587758        5.4217973930       14.6811304461
 Ni         6.2294931214        0.0296844836       14.6907713317
 Ni        -3.1504855857        5.4164005530       14.6911573857
 Ni         1.5386852654        2.7071436356       14.6917615471
 Pt         2.3029159824        4.0615658961       16.9022718254
 Pt        -2.3865210181        4.0613565719       16.9027724384
 Pt         2.3016611120        6.7705718035       16.8992789779
 Pt        -2.3868386050        6.7684726396       16.9008250505
 Pt         4.6707259009        0.0005233915       16.9565658560
 Pt        -0.0153036912       -0.0003480891       16.9588569454
 Pt        -0.0167417377        2.7092138533       16.9576668097
 Pt         4.6735055812        2.7088952187       16.9556255496
 Pt         6.9908599252        1.3542511207       16.9039999514
 Pt         2.3009517954        1.3552463828       16.9007513049
 Pt         4.6729504738        5.4146900135       16.9542048680
 Pt        -0.0145552837        5.4148537076       16.9534990164
      60
 i =        5, E =     -7949.3304861448
 Pt        -3.1002067065        5.4155147365        8.1037789080
 Pt         1.5912316447        5.4157773937        8.1038253041
 Pt        -0.7264341503        1.3545750448        8.1583567791
 Pt         3.9617836102        1.3549319284        8.1567183828
 Pt         1.5882778340        2.7092630829        8.1027818539
 Pt         6.2802897647        2.7090065843        8.1029736752
 Pt         6.2787346044        0.0009491285        8.1007895743
 Pt         1.5912322839        0.0006359840        8.1029071763
 Pt        -0.7260009425        6.7703582913        8.1618666143
 Pt         3.9627999506        6.7697351743        8.1619648530
 Pt        -0.7265088179        4.0632387877        8.1628237541
 Pt         3.9624896174        4.0612606617        8.1627067424
 Ni         0.0369889597        5.4293429479       10.3722952789
 Ni         4.7233262454        2.6931554296       10.3713822129
 Ni         0.0349452643        0.0122422927       10.3720722280
 Ni         4.6939025211        5.4166714335       10.3817102739
 Pt        -2.3115939390        4.0485563754       10.3736599717
 Pt        -2.3124545480        6.7845808326       10.3718248190
 Ni         0.0066281295        2.7074877863       10.3813956571
 Ni         4.7084350832        0.0215795970       10.3808850239
 Pt         2.3774299441        4.0779373492       10.3737163831
 Pt         2.3751067675        1.3416668249       10.3712202871
 Pt         2.3776088795        6.7580755382       10.3733727782
 Pt         7.0667400626        1.3703036830       10.3720632292
 Pt        -3.9029353416        6.7703885993       12.5309093776
 Pt        -1.5583862781        5.4166596381       12.5279859029
 Ni        -1.5460394235        2.7062383011       12.5068819069
 Pt         0.7886817155        4.0663043432       12.5306945879
 Pt         0.7876496609        1.3563318238       12.5312371772
 Pt         0.7870193585        6.7742141908       12.5321328774
 Ni         3.1208589566       -0.0062836168       12.5074375031
 Pt         3.1298990255        2.7084958311       12.5277722392
 Ni         3.1387363163        5.4197533544       12.5069681830
 Pt         5.4770283354        4.0614914923       12.5303430836
 Pt         5.4758668614        1.3576981315       12.5302759943
 Pt         7.8198340280        0.0034308845       12.5302367616
 Pt        -0.8037138692        1.3720194680       14.6854545685
 Pt         3.8805977188        6.7550748184       14.6831153539
 Pt         3.8803582645        1.3401066757       14.6817397293
 Pt         3.8773803763        4.0806191877       14.6807080911
 Ni         6.2441553263        2.7019905310       14.6816981705
 Pt        -0.8073697066        6.7868176310       14.6820937982
 Ni         1.5698566113        0.0117221334       14.6813442797
 Pt        -0.8113319234        4.0454425679       14.6812979315
 Ni         1.5535541120        5.4222760573       14.6811646499
 Ni         6.2276499005        0.0300636882       14.6904690929
 Ni        -3.1514538399        5.4161902249       14.6904736967
 Ni         1.5385255082        2.7072055129       14.6909844999
 Pt         2.3009827762        4.0623616273       16.8997339781
 Pt        -2.3880435962        4.0617110789       16.9002100661
 Pt         2.3005597102        6.7705072871       16.8980914550
 Pt        -2.3877727596        6.7688674774       16.8997329951
 Pt         4.6716838713        0.0009037818       16.9536958759
 Pt        -0.0148912076        0.0002828379       16.9560013810
 Pt        -0.0168954601        2.7091285100       16.9559291933
 Pt         4.6733479172        2.7090434006       16.9545037229
 Pt         6.9912237228        1.3550129651       16.9049927172
 Pt         2.3014638141        1.3552772779       16.9022613504
 Pt         4.6715448351        5.4154539143       16.9544611700
 Pt        -0.0156266601        5.4154574335       16.9543391269
      60
 i =        6, E =     -7949.3305208727
 Pt        -3.0997161292        5.4161797030        8.1016917766
 Pt         1.5920377950        5.4166077282        8.1023494808
 Pt        -0.7267427104        1.3555320410        8.1568039810
 Pt         3.9618545119        1.3549108568        8.1556142587
 Pt         1.5886608411        2.7092162926        8.1016061910
 Pt         6.2802790902        2.7091826148        8.1023125690
 Pt         6.2784550931        0.0018593767        8.1002566245
 Pt         1.5905821148        0.0015402553        8.1022179507
 Pt        -0.7254174042        6.7710362947        8.1614253120
 Pt         3.9634859284        6.7701034085        8.1610827474
 Pt        -0.7252418569        4.0637176011        8.1632935749
 Pt         3.9636634812        4.0619813662        8.1625569776
 Ni         0.0372888220        5.4308340762       10.3720133168
 Ni         4.7240522550        2.6947774163       10.3702051695
 Ni         0.0359154093        0.0131578676       10.3710962022
 Ni         4.6948172356        5.4169557002       10.3815688059
 Pt        -2.3125312874        4.0493411103       10.3722574311
 Pt        -2.3121079561        6.7853491538       10.3707244377
 Ni         0.0066079066        2.7075799620       10.3813110748
 Ni         4.7131351730        0.0184336829       10.3817630749
 Pt         2.3757625134        4.0778025149       10.3716359251
 Pt         2.3778060269        1.3414214746       10.3704136048
 Pt         2.3785981208        6.7578942689       10.3723427754
 Pt         7.0691718860        1.3711996096       10.3713452314
 Pt        -3.9026237354        6.7709968013       12.5303659400
 Pt        -1.5578584753        5.4165504690       12.5271403942
 Ni        -1.5445980020        2.7073735682       12.5073287136
 Pt         0.7893676596        4.0666938332       12.5300347182
 Pt         0.7881646383        1.3570638766       12.5304769117
 Pt         0.7880654948        6.7742204732       12.5322076484
 Ni         3.1211409320       -0.0042798080       12.5065955154
 Pt         3.1306744422        2.7098861407       12.5262012908
 Ni         3.1407013672        5.4185799271       12.5063736457
 Pt         5.4775847262        4.0618491009       12.5294661112
 Pt         5.4763422576        1.3581591893       12.5296904853
 Pt         7.8201428341        0.0031477305       12.5292124567
 Pt        -0.8063851620        1.3726547797       14.6839052572
 Pt         3.8799734188        6.7558166412       14.6821397869
 Pt         3.8779543610        1.3409491644       14.6804076279
 Pt         3.8781421453        4.0808628397       14.6802201335
 Ni         6.2413914865        2.7035385507       14.6815506713
 Pt        -0.8078464781        6.7874500320       14.6812636242
 Ni         1.5691532246        0.0130231976       14.6813713864
 Pt        -0.8102492009        4.0465644998       14.6809436422
 Ni         1.5536606590        5.4223213351       14.6813502547
 Ni         6.2255552479        0.0305852283       14.6898923496
 Ni        -3.1519109137        5.4160832636       14.6894048865
 Ni         1.5387221178        2.7085370221       14.6899003848
 Pt         2.2993012450        4.0631915460       16.8977984082
 Pt        -2.3896175043        4.0623346531       16.8981131885
 Pt         2.2993489934        6.7708715055       16.8964568052
 Pt        -2.3889430482        6.7694539408       16.8983158315
 Pt         4.6716674702        0.0018020416       16.9520412626
 Pt        -0.0148580507        0.0012264862       16.9535313189
 Pt        -0.0175856857        2.7091978341       16.9542828965
 Pt         4.6727335072        2.7093187917       16.9530203480
 Pt         6.9906988908        1.3561041826       16.9041456535
 Pt         2.3012252640        1.3556300547       16.9023145776
 Pt         4.6702027671        5.4162885052       16.9529972673
 Pt        -0.0167299418        5.4162822151       16.9537987203
      60
 i =        7, E =     -7949.3305476398
 Pt        -3.0987248301        5.4176185596        8.0993397890
 Pt         1.5928438903        5.4180066195        8.0998965481
 Pt        -0.7261165348        1.3571157217        8.1544158968
 Pt         3.9628055982        1.3556232768        8.1543056944
 Pt         1.5895772370        2.7096771330        8.0991425860
 Pt         6.2809704948        2.7101019282        8.1003088610
 Pt         6.2795906181        0.0031814408        8.0982812797
 Pt         1.5910218407        0.0028592234        8.0998214550
 Pt        -0.7246388470        6.7719648126        8.1600801673
 Pt         3.9644128706        6.7711415038        8.1590025461
 Pt        -0.7240881497        4.0649109798        8.1626884054
 Pt         3.9646574147        4.0630468712        8.1611291485
 Ni         0.0380944310        5.4308757424       10.3712198352
 Ni         4.7253561112        2.6942885979       10.3680755974
 Ni         0.0351861153        0.0146170357       10.3689669763
 Ni         4.6960428403        5.4171497230       10.3807326188
 Pt        -2.3133444163        4.0508152717       10.3695796446
 Pt        -2.3112307128        6.7867381236       10.3690290527
 Ni         0.0068780923        2.7077375559       10.3806660393
 Ni         4.7217731185        0.0117842158       10.3803902124
 Pt         2.3745941916        4.0778163245       10.3680484501
 Pt         2.3811698377        1.3411813535       10.3686596717
 Pt         2.3804173967        6.7578183379       10.3706363967
 Pt         7.0721274973        1.3724333302       10.3700349231
 Pt        -3.9012874046        6.7722779800       12.5287594254
 Pt        -1.5568861580        5.4175256314       12.5251464451
 Ni        -1.5434196305        2.7093099644       12.5063926696
 Pt         0.7904185236        4.0675386612       12.5288350056
 Pt         0.7890456189        1.3582511534       12.5286692104
 Pt         0.7896625180        6.7744856849       12.5315733531
 Ni         3.1217833841       -0.0001034271       12.5050451951
 Pt         3.1317610130        2.7124568997       12.5230292816
 Ni         3.1436677863        5.4172711114       12.5051100977
 Pt         5.4788498834        4.0628574142       12.5274350659
 Pt         5.4773671348        1.3586386030       12.5281620907
 Pt         7.8209652343        0.0033038018       12.5273347744
 Pt        -0.8101791271        1.3746203042       14.6805486485
 Pt         3.8791031780        6.7571520801       14.6798771831
 Pt         3.8751005929        1.3422065783       14.6777286015
 Pt         3.8784925934        4.0818880897       14.6784825374
 Ni         6.2355635932        2.7072255197       14.6812880826
 Pt        -0.8087519392        6.7889467488       14.6792132371
 Ni         1.5682812255        0.0154467532       14.6808010861
 Pt        -0.8094294984        4.0478706786       14.6794499578
 Ni         1.5534434502        5.4222651974       14.6809502620
 Ni         6.2222734418        0.0310414275       14.6889411526
 Ni        -3.1521497681        5.4165911916       14.6879011744
 Ni         1.5391974830        2.7096328624       14.6884192876
 Pt         2.2972656928        4.0645629976       16.8955822328
 Pt        -2.3914424793        4.0638107033       16.8956516605
 Pt         2.2975038411        6.7722533291       16.8940317490
 Pt        -2.3906636726        6.7707974574       16.8960898585
 Pt         4.6699324396        0.0033493595       16.9503624279
 Pt        -0.0162034154        0.0029124051       16.9504423690
 Pt        -0.0193618746        2.7100622519       16.9520763543
 Pt         4.6708017574        2.7103069082       16.9514276190
 Pt         6.9889828914        1.3576512150       16.9017248586
 Pt         2.2997729249        1.3568733896       16.9013760447
 Pt         4.6683005633        5.4179056449       16.9504508767
 Pt        -0.0186470867        5.4178111100       16.9522713700
      60
 i =        8, E =     -7949.3305648154
 Pt        -3.0987005411        5.4180218453        8.0995312356
 Pt         1.5929460672        5.4181400548        8.1000497726
 Pt        -0.7252301147        1.3573715170        8.1544607464
 Pt         3.9636989011        1.3559722704        8.1546990753
 Pt         1.5901232947        2.7100691316        8.0989897366
 Pt         6.2815742555        2.7105152657        8.0995175704
 Pt         6.2803678572        0.0032876607        8.0981024769
 Pt         1.5921349216        0.0031145773        8.0986422108
 Pt        -0.7244073205        6.7722287407        8.1594557357
 Pt         3.9646930685        6.7715231210        8.1584739506
 Pt        -0.7242215187        4.0651931751        8.1616685741
 Pt         3.9645576111        4.0632808751        8.1601468148
 Ni         0.0383553988        5.4309795669       10.3707592756
 Ni         4.7261316702        2.6943717529       10.3671404197
 Ni         0.0348920162        0.0150333922       10.3680534132
 Ni         4.6962489813        5.4177002109       10.3806819720
 Pt        -2.3127362775        4.0508690558       10.3691104853
 Pt        -2.3109099338        6.7870435395       10.3687924983
 Ni         0.0069809917        2.7079424490       10.3804579372
 Ni         4.7200536704        0.0115087245       10.3798044305
 Pt         2.3753899888        4.0780374124       10.3677449235
 Pt         2.3809373706        1.3416432140       10.3683474422
 Pt         2.3809471364        6.7579068610       10.3705300908
 Pt         7.0720653550        1.3723139870       10.3697473238
 Pt        -3.9008521281        6.7727752757       12.5282111482
 Pt        -1.5566932151        5.4181973792       12.5244056262
 Ni        -1.5446866876        2.7091203393       12.5065292059
 Pt         0.7902924824        4.0676674539       12.5282371273
 Pt         0.7891014997        1.3586507923       12.5280710761
 Pt         0.7896295492        6.7746112396       12.5308714170
 Ni         3.1212428388        0.0019158026       12.5065191513
 Pt         3.1321194042        2.7129472368       12.5222060627
 Ni         3.1426562360        5.4174225480       12.5062767783
 Pt         5.4789944140        4.0631706069       12.5267663550
 Pt         5.4772532332        1.3586928042       12.5274944275
 Pt         7.8212799348        0.0035385196       12.5265076346
 Pt        -0.8105169989        1.3754881019       14.6792302440
 Pt         3.8790274322        6.7576265889       14.6787495112
 Pt         3.8752596313        1.3426252534       14.6768755537
 Pt         3.8781388746        4.0823945891       14.6775174351
 Ni         6.2345158544        2.7081121295       14.6812198886
 Pt        -0.8089744409        6.7895146900       14.6783200918
 Ni         1.5680637719        0.0158302382       14.6805371994
 Pt        -0.8098485137        4.0482052560       14.6784667381
 Ni         1.5529646738        5.4220935554       14.6809190974
 Ni         6.2225135496        0.0301007875       14.6884412317
 Ni        -3.1520186025        5.4167630495       14.6876399172
 Ni         1.5393744330        2.7095618704       14.6881984173
 Pt         2.2972426727        4.0649430078       16.8953720968
 Pt        -2.3915816220        4.0643410774       16.8953618468
 Pt         2.2971281706        6.7730083975       16.8933144584
 Pt        -2.3911049015        6.7713599432       16.8952928427
 Pt         4.6686016186        0.0038197059       16.9503344338
 Pt        -0.0174042430        0.0034702164       16.9495200639
 Pt        -0.0201836280        2.7107420438       16.9513496196
 Pt         4.6699125771        2.7109403821       16.9508436519
 Pt         6.9878414631        1.3579836725       16.8999273874
 Pt         2.2986945365        1.3575913061       16.8999248334
 Pt         4.6680882740        5.4184233726       16.9491404966
 Pt        -0.0190492709        5.4182788664       16.9510421559
