      60
 i =        1, E =     -7949.3286679390
 Pt        -3.0944745729        5.4137641679        8.0968956292
 Pt         1.5940963322        5.4134741168        8.1152316015
 Pt        -0.7342248236        1.3530916871        8.1600657627
 Pt         3.9545407450        1.3541610896        8.1597720496
 Pt         1.5881125540        2.7056449196        8.1286343704
 Pt         6.2767978098        2.7065949665        8.1251526605
 Pt         6.2723337441       -0.0008533530        8.1443563747
 Pt         1.5830892763       -0.0014678006        8.1338576439
 Pt        -0.7283216911        6.7633013161        8.1754136023
 Pt         3.9639959496        6.7655415800        8.1809157690
 Pt        -0.7231492394        4.0635571350        8.1896548407
 Pt         3.9687225366        4.0607408411        8.1927741845
 Ni         0.0343994245        5.4329538754       10.3783912691
 Ni         4.7268978149        2.6947734842       10.3765470839
 Ni         0.0356118951        0.0223551826       10.3768677027
 Ni         4.7043436323        5.4219420349       10.3811313509
 Pt        -2.3231043621        4.0512399866       10.3788977589
 Pt        -2.3166462800        6.7763470902       10.3797623675
 Ni         0.0119511961        2.7098707641       10.3785257848
 Ni         4.6873596920        0.0084742787       10.3756110395
 Pt         2.3708510859        4.0794755398       10.3836703700
 Pt         2.3915846619        1.3377977582       10.3876282610
 Pt         2.3811231159        6.7473348766       10.3844625887
 Pt         7.0825167830        1.3758634757       10.3875954398
 Pt        -3.9056771697        6.7695572973       12.5314437700
 Pt        -1.5629109300        5.4077971586       12.5305220872
 Ni        -1.5564002199        2.6976705902       12.5288518352
 Pt         0.7835901019        4.0626426044       12.5296609801
 Pt         0.7825082900        1.3542443920       12.5331447866
 Pt         0.7798152504        6.7712105045       12.5323021436
 Ni         3.1114209276       -0.0045025756       12.5283810154
 Pt         3.1269559893        2.7153509169       12.5305286611
 Ni         3.1331714692        5.4255099085       12.5295872301
 Pt         5.4739708617        4.0588251806       12.5296878128
 Pt         5.4677545528        1.3524574438       12.5313352974
 Pt         7.8160003648       -0.0035248511       12.5292134145
 Pt        -0.8211922054        1.3766155962       14.6744215160
 Pt         3.8774322629        6.7465416525       14.6768088078
 Pt         3.8650478996        1.3353413001       14.6735692504
 Pt         3.8874691860        4.0784001727       14.6777359611
 Ni         6.2536583041        2.7003452714       14.6851217113
 Pt        -0.8062499582        6.7787768903       14.6791307101
 Ni         1.5710081097        0.0064246536       14.6889002973
 Pt        -0.7971340941        4.0502675815       14.6805746846
 Ni         1.5552262002        5.4215180210       14.6835473882
 Ni         6.2405354628        0.0216658598       14.6858537426
 Ni        -3.1575550395        5.4152324293       14.6831187431
 Ni         1.5410817003        2.7016591549       14.6841190961
 Pt         2.2962128520        4.0611079083       16.8716632989
 Pt        -2.3904735512        4.0634345259       16.8728243497
 Pt         2.3006000670        6.7658117715       16.8834088559
 Pt        -2.3860630886        6.7632779651       16.8869050256
 Pt         4.6815414138       -0.0010390582       16.9253461916
 Pt        -0.0078283121       -0.0003472243       16.9161246904
 Pt        -0.0122820621        2.7066585572       16.9336889911
 Pt         4.6762284612        2.7061331640       16.9312373927
 Pt         6.9982609642        1.3534162327       16.9054301844
 Pt         2.3092135484        1.3553697200       16.9067716591
 Pt         4.6699934240        5.4141185956       16.9447457096
 Pt        -0.0189555206        5.4138926646       16.9592135859
      60
 i =        2, E =     -7949.3300084582
 Pt        -3.1021804320        5.4143844707        8.1101330723
 Pt         1.5895829448        5.4149156747        8.1185232629
 Pt        -0.7271842892        1.3538807337        8.1695222952
 Pt         3.9610546376        1.3527351308        8.1686057492
 Pt         1.5869023742        2.7057868750        8.1172534888
 Pt         6.2787784621        2.7054380661        8.1106978325
 Pt         6.2747780328       -0.0001747525        8.1180203677
 Pt         1.5894402395        0.0000199400        8.1064084725
 Pt        -0.7275655914        6.7680735378        8.1681301513
 Pt         3.9631972742        6.7677912125        8.1712734478
 Pt        -0.7263676056        4.0612757600        8.1683994477
 Pt         3.9636779513        4.0603570722        8.1707959763
 Ni         0.0355531405        5.4298374187       10.3770557424
 Ni         4.7265263185        2.6957980018       10.3764670540
 Ni         0.0403485293        0.0147515574       10.3762401146
 Ni         4.7013853803        5.4183488969       10.3835132833
 Pt        -2.3163937372        4.0472304153       10.3754626266
 Pt        -2.3140541954        6.7835718769       10.3771233637
 Ni         0.0048495338        2.7068486373       10.3833712744
 Ni         4.6927645899        0.0159342496       10.3845457423
 Pt         2.3759666516        4.0766634718       10.3783495442
 Pt         2.3812663720        1.3385203168       10.3816741656
 Pt         2.3797325773        6.7563066589       10.3813049324
 Pt         7.0732388698        1.3698924716       10.3813926003
 Pt        -3.9044460065        6.7687891733       12.5319182270
 Pt        -1.5613131718        5.4115419485       12.5304828337
 Ni        -1.5569843747        2.7042892463       12.5247442970
 Pt         0.7841495717        4.0640194187       12.5294669272
 Pt         0.7863078405        1.3562636057       12.5324735211
 Pt         0.7831088165        6.7719684292       12.5319429420
 Ni         3.1220545451       -0.0070864051       12.5254391379
 Pt         3.1282104649        2.7125576668       12.5313555352
 Ni         3.1311276511        5.4191917246       12.5255833147
 Pt         5.4740623473        4.0595676230       12.5304674900
 Pt         5.4715577839        1.3533726623       12.5301668114
 Pt         7.8180398618       -0.0013065675       12.5315006408
 Pt        -0.8107646333        1.3718642269       14.6790309818
 Pt         3.8790475090        6.7533487527       14.6798836942
 Pt         3.8729023963        1.3360843486       14.6788243207
 Pt         3.8828691770        4.0767622568       14.6807951786
 Ni         6.2488517297        2.6975750463       14.6805163725
 Pt        -0.8058879704        6.7843137888       14.6828958646
 Ni         1.5694984226        0.0090257646       14.6798737979
 Pt        -0.8050175729        4.0461943849       14.6824516861
 Ni         1.5540803632        5.4227367365       14.6814242968
 Ni         6.2378024285        0.0259551343       14.6875784574
 Ni        -3.1512092237        5.4134200382       14.6883251000
 Ni         1.5379596787        2.7136999012       14.6883250108
 Pt         2.3011882311        4.0614942022       16.8946106253
 Pt        -2.3871588701        4.0601545752       16.8948110230
 Pt         2.3005679594        6.7681680679       16.8927965053
 Pt        -2.3865834647        6.7679079786       16.8948192739
 Pt         4.6749323831       -0.0000128441       16.9509365113
 Pt        -0.0104820314       -0.0000070246       16.9439557612
 Pt        -0.0146007487        2.7059862939       16.9493422951
 Pt         4.6766361875        2.7052510973       16.9433910144
 Pt         6.9920130186        1.3544215835       16.8962063786
 Pt         2.3031360165        1.3526634065       16.8945856253
 Pt         4.6742790195        5.4145298259       16.9425065540
 Pt        -0.0123624162        5.4148476801       16.9483159259
      60
 i =        3, E =     -7949.3302949582
 Pt        -3.1022144384        5.4145406999        8.1097236223
 Pt         1.5896886412        5.4149764395        8.1131122431
 Pt        -0.7257920640        1.3532693989        8.1666912322
 Pt         3.9621072994        1.3537705342        8.1652730156
 Pt         1.5877827698        2.7076386984        8.1100813918
 Pt         6.2802086533        2.7065740081        8.1056049669
 Pt         6.2776429709       -0.0003347523        8.1076294279
 Pt         1.5919118800        0.0002544204        8.1019158599
 Pt        -0.7273530783        6.7695585328        8.1650126600
 Pt         3.9619218530        6.7694089866        8.1665495414
 Pt        -0.7282283932        4.0613578714        8.1632330633
 Pt         3.9607969099        4.0598184381        8.1647276906
 Ni         0.0356540075        5.4306603502       10.3744618166
 Ni         4.7249888814        2.6948384962       10.3744283609
 Ni         0.0354186993        0.0129785899       10.3747155258
 Ni         4.6970099342        5.4182478785       10.3822931063
 Pt        -2.3128761288        4.0464077050       10.3762971354
 Pt        -2.3127697683        6.7853755932       10.3748772527
 Ni         0.0055280867        2.7077083915       10.3827436848
 Ni         4.7006555274        0.0248148698       10.3854364382
 Pt         2.3784019198        4.0769863593       10.3785883950
 Pt         2.3759893752        1.3392221061       10.3771329982
 Pt         2.3780169796        6.7572536812       10.3784368220
 Pt         7.0683614642        1.3695555430       10.3773158581
 Pt        -3.9037406927        6.7691781419       12.5315675807
 Pt        -1.5599777817        5.4132119965       12.5299883025
 Ni        -1.5512902013        2.7004866847       12.5178428087
 Pt         0.7861588720        4.0653418375       12.5298624865
 Pt         0.7869595352        1.3560765692       12.5321811283
 Pt         0.7840531580        6.7732623889       12.5319205547
 Ni         3.1169500232       -0.0086485101       12.5190488900
 Pt         3.1286197887        2.7104785892       12.5300868525
 Ni         3.1356126223        5.4232754511       12.5196929735
 Pt         5.4757012632        4.0599971635       12.5303336456
 Pt         5.4722587086        1.3549111941       12.5315124464
 Pt         7.8194446057        0.0011645534       12.5318590477
 Pt        -0.8050784365        1.3712342220       14.6829146875
 Pt         3.8802002833        6.7552768886       14.6822888757
 Pt         3.8789647968        1.3371752360       14.6791862874
 Pt         3.8795746116        4.0782991033       14.6807451016
 Ni         6.2480982496        2.7003276110       14.6799212199
 Pt        -0.8059088800        6.7864668057       14.6821893966
 Ni         1.5690613782        0.0100076039       14.6806013404
 Pt        -0.8092964856        4.0442955337       14.6814568111
 Ni         1.5542544263        5.4209347318       14.6802862325
 Ni         6.2345701964        0.0275516971       14.6894510810
 Ni        -3.1501324250        5.4155703538       14.6902233376
 Ni         1.5380981917        2.7107766995       14.6904908623
 Pt         2.3033024937        4.0611749276       16.9005617408
 Pt        -2.3860558533        4.0603552788       16.9008273932
 Pt         2.3020506518        6.7696673474       16.8965401049
 Pt        -2.3864334610        6.7682560719       16.8985484279
 Pt         4.6719767362        0.0003213611       16.9562491858
 Pt        -0.0136315100       -0.0003874489       16.9528692795
 Pt        -0.0158813131        2.7073724635       16.9547331545
 Pt         4.6751669195        2.7069474580       16.9506719551
 Pt         6.9911299661        1.3539794562       16.8987962706
 Pt         2.3012041966        1.3539636087       16.8964792653
 Pt         4.6744258167        5.4144578022       16.9479245500
 Pt        -0.0127361042        5.4146441606       16.9503106037
      60
 i =        4, E =     -7949.3304263046
 Pt        -3.1010768184        5.4149351611        8.1066027437
 Pt         1.5904096716        5.4151533628        8.1059733011
 Pt        -0.7258212175        1.3538214978        8.1608144080
 Pt         3.9620428851        1.3552663575        8.1589804853
 Pt         1.5884482153        2.7094663554        8.1037208000
 Pt         6.2805572810        2.7086683342        8.1026568939
 Pt         6.2797353860        0.0001461220        8.0999966655
 Pt         1.5924196392        0.0002513219        8.1012248419
 Pt        -0.7266991904        6.7699413997        8.1623847446
 Pt         3.9619297737        6.7698086234        8.1623763143
 Pt        -0.7280277232        4.0626572041        8.1613928296
 Pt         3.9608722155        4.0603574119        8.1616762215
 Ni         0.0365295710        5.4302264129       10.3726981494
 Ni         4.7232923908        2.6936357382       10.3724091568
 Ni         0.0339010708        0.0116119130       10.3728211859
 Ni         4.6932513890        5.4167180761       10.3817904719
 Pt        -2.3106818786        4.0473987325       10.3739656111
 Pt        -2.3117007378        6.7849016795       10.3725085303
 Ni         0.0067124811        2.7079769964       10.3813761826
 Ni         4.7091991392        0.0295213985       10.3800522298
 Pt         2.3788895034        4.0777947915       10.3748751826
 Pt         2.3730654311        1.3413741690       10.3720937533
 Pt         2.3771047261        6.7580567295       10.3746277244
 Pt         7.0654663731        1.3696760779       10.3728462855
 Pt        -3.9032173464        6.7697399313       12.5312074556
 Pt        -1.5587016324        5.4166286712       12.5287995486
 Ni        -1.5483237060        2.7058329102       12.5068332140
 Pt         0.7879017670        4.0659522271       12.5308946086
 Pt         0.7872216852        1.3561930291       12.5318145890
 Pt         0.7861883017        6.7743756345       12.5316048278
 Ni         3.1203768219       -0.0079081214       12.5085243449
 Pt         3.1295408865        2.7075827583       12.5286505977
 Ni         3.1366361580        5.4193460838       12.5092264700
 Pt         5.4765496468        4.0611215927       12.5307236396
 Pt         5.4750981135        1.3572283377       12.5313393950
 Pt         7.8197417779        0.0034754223       12.5310501692
 Pt        -0.8017596545        1.3720872099       14.6854222702
 Pt         3.8809737749        6.7550399851       14.6833435180
 Pt         3.8823223731        1.3392931918       14.6816465967
 Pt         3.8769759524        4.0804294625       14.6811125042
 Ni         6.2459022307        2.7017492530       14.6815314641
 Pt        -0.8068684702        6.7870585990       14.6823746695
 Ni         1.5704791038        0.0110976466       14.6808195382
 Pt        -0.8121498325        4.0439587908       14.6812589308
 Ni         1.5534591479        5.4217983295       14.6811349794
 Ni         6.2294978230        0.0296822025       14.6907726212
 Ni        -3.1504863567        5.4163992743       14.6911590114
 Ni         1.5386858869        2.7071457450       14.6917627450
 Pt         2.3029136165        4.0615662433       16.9022602343
 Pt        -2.3865225463        4.0613563481       16.9027607058
 Pt         2.3016596706        6.7705703666       16.8992695844
 Pt        -2.3868396098        6.7684720044       16.9008153865
 Pt         4.6707302302        0.0005230026       16.9565486971
 Pt        -0.0152994873       -0.0003477272       16.9588384781
 Pt        -0.0167390141        2.7092118768       16.9576483102
 Pt         4.6735088717        2.7088935108       16.9556088118
 Pt         6.9908601818        1.3542509127       16.9039899646
 Pt         2.3009522034        1.3552453256       16.9007422093
 Pt         4.6729518568        5.4146904113       16.9541844134
 Pt        -0.0145526555        5.4148539708       16.9534862156
      60
 i =        5, E =     -7949.3304862146
 Pt        -3.1002038937        5.4155146497        8.1037565551
 Pt         1.5912360321        5.4157768879        8.1038053078
 Pt        -0.7264360992        1.3545757941        8.1583514480
 Pt         3.9617825035        1.3549344944        8.1567116545
 Pt         1.5882815476        2.7092650481        8.1027580879
 Pt         6.2802913266        2.7090074148        8.1029557075
 Pt         6.2787381920        0.0009498429        8.1007641398
 Pt         1.5912331512        0.0006361760        8.1028878065
 Pt        -0.7260008541        6.7703581054        8.1618634009
 Pt         3.9627988504        6.7697339372        8.1619603507
 Pt        -0.7265073275        4.0632395817        8.1628193260
 Pt         3.9624893059        4.0612618250        8.1627046200
 Ni         0.0369894043        5.4293426985       10.3723051587
 Ni         4.7233248155        2.6931546331       10.3713903368
 Ni         0.0349456668        0.0122415826       10.3720809593
 Ni         4.6939012205        5.4166710734       10.3817144269
 Pt        -2.3115945185        4.0485588448       10.3736603761
 Pt        -2.3124552405        6.7845804489       10.3718272477
 Ni         0.0066290301        2.7074866824       10.3814008598
 Ni         4.7084414842        0.0215805767       10.3808896824
 Pt         2.3774280863        4.0779359103       10.3737180262
 Pt         2.3751073770        1.3416672528       10.3712205414
 Pt         2.3776088028        6.7580779316       10.3733737119
 Pt         7.0667395438        1.3703037729       10.3720646909
 Pt        -3.9029367711        6.7703906867       12.5309159940
 Pt        -1.5583870844        5.4166623838       12.5279970258
 Ni        -1.5460336765        2.7062408204       12.5068814425
 Pt         0.7886815799        4.0663047444       12.5307027626
 Pt         0.7876477399        1.3563326695       12.5312452045
 Pt         0.7870194677        6.7742145997       12.5321427035
 Ni         3.1208612222       -0.0062821469       12.5074382189
 Pt         3.1298960469        2.7084952502       12.5277852718
 Ni         3.1387392728        5.4197518136       12.5069694972
 Pt         5.4770261317        4.0614923217       12.5303528700
 Pt         5.4758675372        1.3576976589       12.5302821816
 Pt         7.8198313951        0.0034319623       12.5302483008
 Pt        -0.8037169327        1.3720208792       14.6854584333
 Pt         3.8805972014        6.7550723629       14.6831178418
 Pt         3.8803575301        1.3401076558       14.6817432893
 Pt         3.8773783707        4.0806211637       14.6807130481
 Ni         6.2441551049        2.7019903963       14.6817016438
 Pt        -0.8073723831        6.7868194699       14.6820977591
 Ni         1.5698577650        0.0117215917       14.6813489796
 Pt        -0.8113318781        4.0454425898       14.6812963076
 Ni         1.5535551579        5.4222767980       14.6811694763
 Ni         6.2276468119        0.0300665348       14.6904771704
 Ni        -3.1514545270        5.4161905720       14.6904800080
 Ni         1.5385254596        2.7072044403       14.6909924423
 Pt         2.3009793321        4.0623631208       16.8997246264
 Pt        -2.3880452388        4.0617112172       16.9002115966
 Pt         2.3005576318        6.7705088349       16.8980865238
 Pt        -2.3877744925        6.7688658685       16.8997239239
 Pt         4.6716870801        0.0009044839       16.9536709157
 Pt        -0.0148894180        0.0002831619       16.9559820493
 Pt        -0.0168974681        2.7091301396       16.9559051505
 Pt         4.6733531961        2.7090450755       16.9544835306
 Pt         6.9912233228        1.3550160754       16.9049845344
 Pt         2.3014626108        1.3552762859       16.9022583396
 Pt         4.6715484998        5.4154540706       16.9544378146
 Pt        -0.0156283012        5.4154568227       16.9543199470
      60
 i =        6, E =     -7949.3305209309
 Pt        -3.0997126340        5.4161811810        8.1016862191
 Pt         1.5920404710        5.4166092551        8.1023442912
 Pt        -0.7267398569        1.3555327915        8.1568017949
 Pt         3.9618573111        1.3549113571        8.1556116470
 Pt         1.5886643309        2.7092168739        8.1015960722
 Pt         6.2802823603        2.7091840326        8.1023099313
 Pt         6.2784597879        0.0018606445        8.1002444181
 Pt         1.5905857858        0.0015412981        8.1022158447
 Pt        -0.7254143565        6.7710377364        8.1614257531
 Pt         3.9634879549        6.7701051254        8.1610806563
 Pt        -0.7252399374        4.0637188870        8.1632927876
 Pt         3.9636651414        4.0619819038        8.1625560564
 Ni         0.0372898097        5.4308330973       10.3720140535
 Ni         4.7240508331        2.6947767966       10.3702056880
 Ni         0.0359118956        0.0131564076       10.3710968611
 Ni         4.6948148400        5.4169557099       10.3815632990
 Pt        -2.3125324490        4.0493433028       10.3722479795
 Pt        -2.3121104418        6.7853499328       10.3707129573
 Ni         0.0066083780        2.7075797120       10.3813056525
 Ni         4.7131431747        0.0184334132       10.3817565387
 Pt         2.3757599105        4.0778027173       10.3716263439
 Pt         2.3778024827        1.3414236145       10.3704011201
 Pt         2.3785949512        6.7578952339       10.3723314378
 Pt         7.0691672533        1.3712001906       10.3713332905
 Pt        -3.9026223112        6.7709980110       12.5303617003
 Pt        -1.5578624818        5.4165539579       12.5271292760
 Ni        -1.5445934626        2.7073771918       12.5073125371
 Pt         0.7893701257        4.0666953556       12.5300317870
 Pt         0.7881659379        1.3570646660       12.5304720523
 Pt         0.7880691341        6.7742218694       12.5322047703
 Ni         3.1211391914       -0.0042783738       12.5065789071
 Pt         3.1306701128        2.7098848190       12.5261913356
 Ni         3.1407053042        5.4185785812       12.5063578794
 Pt         5.4775872354        4.0618505897       12.5294630598
 Pt         5.4763438031        1.3581617517       12.5296867007
 Pt         7.8201386443        0.0031498402       12.5292031826
 Pt        -0.8063857356        1.3726547906       14.6838975640
 Pt         3.8799710102        6.7558186681       14.6821322215
 Pt         3.8779540830        1.3409507714       14.6804011115
 Pt         3.8781367975        4.0808634367       14.6802113482
 Ni         6.2413892116        2.7035398192       14.6815469009
 Pt        -0.8078504433        6.7874525652       14.6812541503
 Ni         1.5691521160        0.0130237491       14.6813662021
 Pt        -0.8102555257        4.0465644580       14.6809358647
 Ni         1.5536620265        5.4223213385       14.6813446707
 Ni         6.2255488359        0.0305873069       14.6898927771
 Ni        -3.1519113708        5.4160843029       14.6894045370
 Ni         1.5387213837        2.7085363718       14.6899007219
 Pt         2.2993010730        4.0631923831       16.8978006234
 Pt        -2.3896152818        4.0623358555       16.8981201772
 Pt         2.2993497861        6.7708727159       16.8964594654
 Pt        -2.3889431238        6.7694558961       16.8983181033
 Pt         4.6716683176        0.0018031423       16.9520391880
 Pt        -0.0148578582        0.0012272672       16.9535300876
 Pt        -0.0175839143        2.7091989705       16.9542833975
 Pt         4.6727328397        2.7093211644       16.9530196665
 Pt         6.9906990167        1.3561048459       16.9041494390
 Pt         2.3012254948        1.3556315841       16.9023188210
 Pt         4.6702034402        5.4162891897       16.9529995157
 Pt        -0.0167297490        5.4162836178       16.9537964901
      60
 i =        7, E =     -7949.3305477018
 Pt        -3.0987167090        5.4176235323        8.0992996974
 Pt         1.5928505544        5.4180112372        8.0998678797
 Pt        -0.7261096110        1.3571235373        8.1543981204
 Pt         3.9628136598        1.3556268735        8.1542922135
 Pt         1.5895855056        2.7096806802        8.0991082025
 Pt         6.2809774687        2.7101074501        8.1002814037
 Pt         6.2796005319        0.0031853049        8.0982516500
 Pt         1.5910285433        0.0028641658        8.0997913186
 Pt        -0.7246320446        6.7719668752        8.1600697510
 Pt         3.9644201215        6.7711442867        8.1589899295
 Pt        -0.7240807631        4.0649160217        8.1626832756
 Pt         3.9646647540        4.0630516713        8.1611226381
 Ni         0.0380961708        5.4308754716       10.3712217022
 Ni         4.7253620076        2.6942862693       10.3680732212
 Ni         0.0351809451        0.0146242395       10.3689629356
 Ni         4.6960478769        5.4171512472       10.3807411204
 Pt        -2.3133522016        4.0508200515       10.3695732695
 Pt        -2.3112312326        6.7867443909       10.3690280231
 Ni         0.0068778939        2.7077407139       10.3806738680
 Ni         4.7218012142        0.0117568795       10.3803908109
 Pt         2.3745872581        4.0778184060       10.3680402062
 Pt         2.3811812614        1.3411804223       10.3686604416
 Pt         2.3804223810        6.7578160740       10.3706373297
 Pt         7.0721370871        1.3724386498       10.3700364057
 Pt        -3.9012850338        6.7722848831       12.5287572873
 Pt        -1.5568815522        5.4175286106       12.5251435128
 Ni        -1.5434271498        2.7093177308       12.5064170068
 Pt         0.7904155409        4.0675441769       12.5288350286
 Pt         0.7890445164        1.3582540511       12.5286651569
 Pt         0.7896640300        6.7744831317       12.5315729902
 Ni         3.1217880328       -0.0000843869       12.5050727429
 Pt         3.1317666650        2.7124708837       12.5230205719
 Ni         3.1436720021        5.4172650134       12.5051392815
 Pt         5.4788509109        4.0628598713       12.5274306200
 Pt         5.4773653548        1.3586421484       12.5281599647
 Pt         7.8209695157        0.0033029456       12.5273303996
 Pt        -0.8101991863        1.3746308725       14.6805300923
 Pt         3.8790970726        6.7571566537       14.6798654435
 Pt         3.8750853254        1.3422128750       14.6777165024
 Pt         3.8784933919        4.0818919815       14.6784728515
 Ni         6.2355402071        2.7072408546       14.6812991628
 Pt        -0.8087576967        6.7889493204       14.6792032130
 Ni         1.5682762217        0.0154548191       14.6808093679
 Pt        -0.8094285349        4.0478781464       14.6794442924
 Ni         1.5534405535        5.4222663247       14.6809608494
 Ni         6.2222639407        0.0310356279       14.6889351292
 Ni        -3.1521530629        5.4165933263       14.6878941333
 Ni         1.5391986142        2.7096380583       14.6884115969
 Pt         2.2972623657        4.0645679764       16.8955608417
 Pt        -2.3914450233        4.0638197386       16.8956296142
 Pt         2.2975008014        6.7722584762       16.8940110984
 Pt        -2.3906664361        6.7708013826       16.8960710978
 Pt         4.6699267874        0.0033552168       16.9503311822
 Pt        -0.0162062077        0.0029189057       16.9503978294
 Pt        -0.0193657844        2.7100677231       16.9520417426
 Pt         4.6707955919        2.7103129233       16.9513924131
 Pt         6.9889783828        1.3576564230       16.9017059045
 Pt         2.2997702115        1.3568815315       16.9013627886
 Pt         4.6682953923        5.4179114624       16.9504141214
 Pt        -0.0186510377        5.4178175785       16.9522382129
      60
 i =        8, E =     -7949.3305648690
 Pt        -3.0986969309        5.4180200991        8.0995321104
 Pt         1.5929491824        5.4181385618        8.1000533294
 Pt        -0.7252281665        1.3573685103        8.1544638741
 Pt         3.9637013190        1.3559675308        8.1546972023
 Pt         1.5901244866        2.7100679642        8.0989915632
 Pt         6.2815774546        2.7105121570        8.0995232915
 Pt         6.2803676980        0.0032865766        8.0981038844
 Pt         1.5921356226        0.0031130572        8.0986509232
 Pt        -0.7244026265        6.7722298682        8.1594598251
 Pt         3.9646959486        6.7715234551        8.1584780305
 Pt        -0.7242171833        4.0651901288        8.1616734381
 Pt         3.9645617865        4.0632800260        8.1601515881
 Ni         0.0383531745        5.4309847756       10.3707571771
 Ni         4.7261263413        2.6943810646       10.3671426869
 Ni         0.0348981241        0.0150290762       10.3680561587
 Ni         4.6962460157        5.4177005729       10.3806752012
 Pt        -2.3127371419        4.0508674603       10.3691056555
 Pt        -2.3109171332        6.7870391913       10.3687799574
 Ni         0.0069796294        2.7079422625       10.3804505051
 Ni         4.7200270600        0.0115239935       10.3798075542
 Pt         2.3753842264        4.0780377118       10.3677402942
 Pt         2.3809232792        1.3416491090       10.3683326681
 Pt         2.3809364470        6.7579102213       10.3705169444
 Pt         7.0720536210        1.3723090991       10.3697328310
 Pt        -3.9008567779        6.7727712405       12.5282076115
 Pt        -1.5566993936        5.4181945695       12.5243950971
 Ni        -1.5446808215        2.7091138050       12.5065111021
 Pt         0.7902924654        4.0676646123       12.5282317953
 Pt         0.7891006109        1.3586514424       12.5280657954
 Pt         0.7896278166        6.7746130445       12.5308653859
 Ni         3.1212336318        0.0019085377       12.5064948707
 Pt         3.1321127600        2.7129406212       12.5221991183
 Ni         3.1426504009        5.4174284065       12.5062510155
 Pt         5.4789931538        4.0631703483       12.5267635189
 Pt         5.4772521533        1.3586924026       12.5274895380
 Pt         7.8212730716        0.0035388762       12.5264969805
 Pt        -0.8105077111        1.3754811359       14.6792297468
 Pt         3.8790253635        6.7576252816       14.6787434582
 Pt         3.8752638494        1.3426243999       14.6768700372
 Pt         3.8781337939        4.0823934553       14.6775084379
 Ni         6.2345326149        2.7081029730       14.6812072102
 Pt        -0.8089759126        6.7895145050       14.6783109509
 Ni         1.5680644983        0.0158255141       14.6805270392
 Pt        -0.8098564765        4.0482032094       14.6784596414
 Ni         1.5529664160        5.4220926791       14.6809071181
 Ni         6.2225126051        0.0301025134       14.6884398508
 Ni        -3.1520199831        5.4167609987       14.6876402307
 Ni         1.5393716541        2.7095606852       14.6881979958
 Pt         2.2972488052        4.0649414764       16.8953778656
 Pt        -2.3915763480        4.0643365082       16.8953669106
 Pt         2.2971340501        6.7730049364       16.8933198549
 Pt        -2.3910986872        6.7713602461       16.8953018535
 Pt         4.6686103685        0.0038175961       16.9503393664
 Pt        -0.0173956912        0.0034680070       16.9495277392
 Pt        -0.0201751257        2.7107400375       16.9513584747
 Pt         4.6699202802        2.7109376966       16.9508506402
 Pt         6.9878491946        1.3579817439       16.8999403545
 Pt         2.2987027964        1.3575885461       16.8999327230
 Pt         4.6680921239        5.4184210237       16.9491544985
 Pt        -0.0190399285        5.4182773298       16.9510473663
