      60
 i =        1, E =     -7949.3286679390
 Pt        -0.0009142739        0.0001196685        0.0006882627
 Pt        -0.0002881489        0.0001567214       -0.0004974885
 Pt         0.0009519217        0.0002481588        0.0003644301
 Pt         0.0008719589       -0.0003927113        0.0002717771
 Pt        -0.0002615862       -0.0001337324       -0.0019545710
 Pt         0.0005412566       -0.0004900003       -0.0020141237
 Pt         0.0002639941        0.0002509063       -0.0034087079
 Pt         0.0011080786        0.0005387038       -0.0030177450
 Pt         0.0000960132        0.0011933446       -0.0015895016
 Pt        -0.0003017057        0.0004998080       -0.0016218963
 Pt        -0.0004538827       -0.0007979550       -0.0027714784
 Pt        -0.0010964882       -0.0000731009       -0.0028467369
 Ni         0.0001521381       -0.0010494378        0.0000223700
 Ni        -0.0004848344       -0.0009133571        0.0002433875
 Ni         0.0002956830       -0.0017063711       -0.0000674042
 Ni        -0.0007223994       -0.0002415693        0.0016654925
 Pt         0.0013845273       -0.0010445507        0.0004781768
 Pt         0.0000724566        0.0013947849        0.0005379092
 Ni        -0.0016144018       -0.0013066060        0.0023723549
 Ni         0.0013238846        0.0017322346        0.0042036831
 Pt         0.0011124970       -0.0003653293        0.0003537635
 Pt        -0.0017382551        0.0000647716       -0.0001470819
 Pt        -0.0003637786        0.0017918170        0.0006374193
 Pt        -0.0018865758       -0.0009428512        0.0000035663
 Pt         0.0002126622       -0.0000011187        0.0001341135
 Pt         0.0003663408        0.0007970255        0.0001354180
 Ni        -0.0004182031        0.0022041754       -0.0012250866
 Pt         0.0000949863        0.0003900638        0.0001472948
 Pt         0.0006109317        0.0003701681       -0.0001618169
 Pt         0.0002617899        0.0002690420       -0.0003715520
 Ni         0.0030166545       -0.0007463324       -0.0006824678
 Pt         0.0002673754       -0.0002150172        0.0000443417
 Ni        -0.0008183583       -0.0022026631       -0.0009725293
 Pt        -0.0001401330       -0.0000301879        0.0002663130
 Pt         0.0004531163       -0.0000543989       -0.0005120591
 Pt         0.0002206570        0.0002952564        0.0005534572
 Pt         0.0019305248       -0.0013254427        0.0000403731
 Pt         0.0005037634        0.0018432774       -0.0005384732
 Pt         0.0018419134        0.0002037347        0.0001062840
 Pt        -0.0006870934       -0.0007484970       -0.0006169802
 Ni        -0.0016775417       -0.0013520638       -0.0024406248
 Pt         0.0000165747        0.0008583140       -0.0004288509
 Ni        -0.0010603622        0.0002505879       -0.0031964500
 Pt        -0.0008771877       -0.0005025692       -0.0006081715
 Ni        -0.0005193034        0.0002290920       -0.0018980337
 Ni        -0.0007382654        0.0008621263        0.0001452598
 Ni         0.0014965353        0.0004806124        0.0008924323
 Ni        -0.0008325686        0.0012322201        0.0008463836
 Pt         0.0009243318       -0.0000416270        0.0029428030
 Pt         0.0004205984       -0.0008121044        0.0029341933
 Pt         0.0002451812        0.0005002034        0.0017013145
 Pt         0.0000229412        0.0011229654        0.0013845956
 Pt        -0.0012442025        0.0003932611        0.0027756026
 Pt        -0.0003590884        0.0001565889        0.0035223225
 Pt        -0.0004812202       -0.0002959251        0.0021380023
 Pt         0.0002081179       -0.0002936863        0.0019061823
 Pt        -0.0007804881        0.0001890009       -0.0004004060
 Pt        -0.0006610478       -0.0006121292       -0.0007458495
 Pt         0.0003300834        0.0000472857        0.0006789110
 Pt         0.0007346586        0.0002503705       -0.0004780861
      60
 i =        2, E =     -7949.3300084582
 Pt         0.0005574596        0.0000382649       -0.0007478816
 Pt         0.0002987953       -0.0000141024       -0.0011747333
 Pt        -0.0001688312       -0.0002641467       -0.0009707616
 Pt        -0.0002001705        0.0003604107       -0.0009467281
 Pt         0.0004049663        0.0002939590       -0.0009898142
 Pt         0.0003012814        0.0002106779       -0.0004459569
 Pt         0.0006437574       -0.0000367405       -0.0008775710
 Pt         0.0003987227       -0.0000024186        0.0001343844
 Pt        -0.0002388598       -0.0000524075       -0.0004482683
 Pt        -0.0004232537        0.0003660488       -0.0004830565
 Pt        -0.0003654743        0.0002132098       -0.0001594958
 Pt        -0.0005429943       -0.0002070903       -0.0003332102
 Ni        -0.0001807160       -0.0000361856       -0.0004630271
 Ni        -0.0003538066       -0.0006721757       -0.0003986139
 Ni        -0.0012019922       -0.0002112606       -0.0002966683
 Ni        -0.0013294836        0.0002581588        0.0001187324
 Pt         0.0007768652       -0.0001513852        0.0004106278
 Pt         0.0001785964        0.0001065462        0.0000221272
 Ni         0.0002185365        0.0003140237        0.0002253320
 Ni         0.0017254830        0.0018095553        0.0000907063
 Pt         0.0005192761        0.0003376029        0.0004094076
 Pt        -0.0006256783        0.0001841594       -0.0003176748
 Pt         0.0000226973       -0.0002755790       -0.0001606101
 Pt        -0.0008488121        0.0001196384       -0.0002080430
 Pt         0.0001532379        0.0001233931        0.0000484396
 Pt         0.0001697479        0.0004678320       -0.0000882230
 Ni         0.0012597679       -0.0010383241       -0.0017301487
 Pt         0.0001432394        0.0001425465       -0.0000129827
 Pt        -0.0000646749       -0.0000817550        0.0001191041
 Pt         0.0001093088        0.0000686948        0.0001280202
 Ni        -0.0016662170       -0.0003852490       -0.0013960276
 Pt         0.0000560686       -0.0004200990       -0.0003732848
 Ni         0.0010188110        0.0010258055       -0.0015931028
 Pt         0.0001589930        0.0001611500        0.0000730162
 Pt        -0.0000025145        0.0002765236        0.0001966133
 Pt         0.0004173308        0.0004514892       -0.0002453204
 Pt         0.0012688463        0.0000632159        0.0005298176
 Pt         0.0003896497        0.0000552994        0.0003424473
 Pt         0.0012627859        0.0003044959       -0.0000437156
 Pt        -0.0004445871        0.0002762861        0.0000330585
 Ni        -0.0003565679        0.0006180517       -0.0000301832
 Pt         0.0000881857        0.0001413960       -0.0002310785
 Ni        -0.0003905053        0.0001630235        0.0001933532
 Pt        -0.0006088730       -0.0001341830       -0.0001213260
 Ni         0.0000706678       -0.0002968473       -0.0002984899
 Ni        -0.0011192189        0.0001146703        0.0002462054
 Ni         0.0001311542        0.0005006923        0.0000841285
 Ni        -0.0000142622       -0.0012432143        0.0002345130
 Pt         0.0004318785       -0.0002262304        0.0002611764
 Pt         0.0002441424        0.0002349738        0.0002566940
 Pt         0.0005636306        0.0004060798        0.0004609920
 Pt         0.0001793300       -0.0002152995        0.0004036135
 Pt        -0.0003329955        0.0000290791       -0.0000824852
 Pt        -0.0007642256       -0.0000811825        0.0005386298
 Pt        -0.0002225175        0.0002112786        0.0003920039
 Pt        -0.0004779120        0.0003731774        0.0008406706
 Pt         0.0002720318       -0.0002993750        0.0009578571
 Pt        -0.0000772558        0.0005047659        0.0008280250
 Pt        -0.0002723926        0.0000010362        0.0011031272
 Pt        -0.0005727391       -0.0001049583        0.0008267946
      60
 i =        3, E =     -7949.3302949582
 Pt         0.0002295807        0.0000204442       -0.0005411188
 Pt         0.0001083810       -0.0000261680       -0.0006561007
 Pt        -0.0001488991        0.0000959565       -0.0007587427
 Pt        -0.0001056709        0.0001524192       -0.0007196857
 Pt         0.0000679689        0.0001447576       -0.0003862499
 Pt        -0.0000745866        0.0002711371        0.0000126564
 Pt         0.0000507877        0.0000930036       -0.0001684075
 Pt        -0.0001814652       -0.0000361276        0.0003590794
 Pt         0.0001026507       -0.0000907296       -0.0000918722
 Pt         0.0001212054       -0.0000626188       -0.0002514749
 Pt         0.0001733776        0.0002695055        0.0002679433
 Pt         0.0002646720        0.0001205503        0.0001462786
 Ni         0.0000657510       -0.0001881326       -0.0001964805
 Ni        -0.0001795533       -0.0001310467       -0.0002579327
 Ni         0.0002479776       -0.0000463370       -0.0002258262
 Ni        -0.0004415619       -0.0002787062        0.0001561361
 Pt         0.0002643199        0.0001585122       -0.0002352111
 Pt         0.0000454381       -0.0003129331       -0.0000926119
 Ni         0.0000918161        0.0000575075       -0.0000152676
 Ni         0.0008257561       -0.0000172194       -0.0009605503
 Pt         0.0000367890        0.0003361569       -0.0003880927
 Pt        -0.0000639887        0.0003551391       -0.0003084870
 Pt        -0.0000415123       -0.0000745901       -0.0002814521
 Pt        -0.0001732989        0.0000591763       -0.0002447837
 Pt         0.0000408040       -0.0000068049       -0.0000484079
 Pt         0.0000774901        0.0002372967       -0.0002154694
 Ni         0.0000383031        0.0014045456       -0.0018339355
 Pt         0.0000561698       -0.0000136004        0.0000579849
 Pt        -0.0000137581        0.0000917955       -0.0000095803
 Pt         0.0001737900        0.0001254724        0.0000124253
 Ni         0.0009996851        0.0002439198       -0.0015318462
 Pt         0.0001144835       -0.0002058565       -0.0001661094
 Ni        -0.0001839290       -0.0012379373       -0.0018167267
 Pt        -0.0000406473        0.0001938530        0.0001058431
 Pt         0.0003259321        0.0001659956       -0.0001323463
 Pt        -0.0001113621        0.0001891688       -0.0003531025
 Pt         0.0003734713        0.0001140693        0.0004032626
 Pt         0.0002514454       -0.0002415922        0.0002943109
 Pt         0.0001094363        0.0003672436        0.0006063594
 Pt         0.0000072733        0.0001856560        0.0001945604
 Ni        -0.0005412971        0.0000559085        0.0005807498
 Pt         0.0000052126       -0.0002096517        0.0003004241
 Ni         0.0000652718        0.0001909770        0.0002421912
 Pt        -0.0000617631        0.0002541550        0.0002118066
 Ni        -0.0002595845        0.0003465246        0.0004703673
 Ni        -0.0008016869        0.0001595861        0.0000494238
 Ni        -0.0002250541       -0.0000609011       -0.0000698257
 Ni         0.0000750602       -0.0005858969       -0.0000410545
 Pt        -0.0002454054        0.0001094992       -0.0003216703
 Pt        -0.0001531215        0.0001609938       -0.0003324527
 Pt        -0.0002200596       -0.0000305812        0.0000491295
 Pt        -0.0000275630       -0.0000434131       -0.0000253716
 Pt         0.0001038474       -0.0000007339       -0.0005921965
 Pt        -0.0000280455        0.0000442040       -0.0000270983
 Pt        -0.0000439991        0.0001882151       -0.0000926532
 Pt        -0.0001581941        0.0001362015        0.0000126371
 Pt         0.0000422122        0.0000751850        0.0006156378
 Pt         0.0001925149        0.0001410256        0.0004739540
 Pt        -0.0002739056        0.0000309842        0.0004819961
 Pt        -0.0002699338        0.0000573160        0.0002951328
      60
 i =        4, E =     -7949.3304263046
 Pt        -0.0000968487        0.0001262289       -0.0003194036
 Pt         0.0000259488        0.0001593398       -0.0001775314
 Pt        -0.0000022439        0.0002156652       -0.0002109764
 Pt         0.0000453385       -0.0001364147       -0.0003082736
 Pt        -0.0001549426       -0.0001115845       -0.0001278041
 Pt        -0.0001406296       -0.0000225297        0.0000083192
 Pt        -0.0003334189        0.0001636736        0.0000674389
 Pt        -0.0003114622        0.0000947928        0.0001059200
 Pt         0.0002872882        0.0001872793        0.0000082318
 Pt         0.0003028400       -0.0000937577       -0.0000763262
 Pt         0.0004125375        0.0000354309        0.0001178760
 Pt         0.0004649353        0.0002336165        0.0000653144
 Ni         0.0001616273        0.0000886311       -0.0000501468
 Ni         0.0000967644        0.0004292243       -0.0001647761
 Ni         0.0004437983        0.0001497677       -0.0001154419
 Ni         0.0003944558       -0.0000991609        0.0000225484
 Pt        -0.0003228502        0.0002903765       -0.0001166989
 Pt        -0.0000568663        0.0000808308       -0.0002025605
 Ni        -0.0001137983       -0.0001405745        0.0000373004
 Ni        -0.0005618772       -0.0025475081        0.0003561028
 Pt        -0.0003890283       -0.0000834988       -0.0002407878
 Pt         0.0003402040       -0.0000251344       -0.0001227092
 Pt        -0.0000126502        0.0000846976       -0.0002636181
 Pt         0.0005358503        0.0001179595       -0.0002431443
 Pt        -0.0000818450        0.0000626987       -0.0001794726
 Pt         0.0000367667       -0.0002280983       -0.0001734921
 Ni         0.0006142690       -0.0000375871        0.0002760652
 Pt         0.0000627362       -0.0000375119       -0.0001043264
 Pt         0.0000720515        0.0000856436       -0.0002249947
 Pt         0.0000773881        0.0001238620       -0.0000632158
 Ni         0.0001928926        0.0004297177       -0.0001885310
 Pt         0.0000440880        0.0002208142       -0.0001405423
 Ni         0.0005978294        0.0002030768       -0.0003371511
 Pt        -0.0000155920        0.0001500347       -0.0001373311
 Pt         0.0001469350        0.0000214673       -0.0000969541
 Pt         0.0000063522       -0.0000941372       -0.0001254530
 Pt        -0.0004918285       -0.0001406416        0.0000541567
 Pt        -0.0000699981        0.0001301379        0.0000661453
 Pt        -0.0005188072        0.0001715295        0.0001418778
 Pt         0.0002302956       -0.0001079688       -0.0000017411
 Ni        -0.0004643118        0.0000725659        0.0001676378
 Pt         0.0000461261       -0.0000547794        0.0001187486
 Ni        -0.0001619855        0.0001451409        0.0002820648
 Pt         0.0002667006        0.0004088980        0.0000422151
 Ni        -0.0001157121        0.0000370629        0.0002420509
 Ni        -0.0002568794        0.0000374327       -0.0000434953
 Ni        -0.0002364864       -0.0002309107       -0.0001144205
 Ni         0.0000234859        0.0003756797       -0.0001733597
 Pt        -0.0004920787        0.0002886562       -0.0003913509
 Pt        -0.0003782641       -0.0000224174       -0.0003953854
 Pt        -0.0003619338       -0.0001303963       -0.0002954215
 Pt        -0.0003021499        0.0001696514       -0.0002337970
 Pt         0.0002438603        0.0000899576       -0.0003863529
 Pt         0.0002386515        0.0001605223       -0.0005346036
 Pt        -0.0000249666       -0.0000976160       -0.0003003348
 Pt         0.0001380776       -0.0000541138       -0.0003352175
 Pt        -0.0000403688        0.0002581860       -0.0000893566
 Pt         0.0000015733       -0.0001494021        0.0000206087
 Pt        -0.0001702901        0.0001862045       -0.0002190105
 Pt         0.0000360533        0.0001468321       -0.0001190222
      60
 i =        5, E =     -7949.3304862146
 Pt        -0.0000164952        0.0000613472       -0.0000775042
 Pt         0.0000507846        0.0000863159       -0.0000235509
 Pt         0.0000054113        0.0001209283       -0.0000004792
 Pt         0.0000351185        0.0000177901       -0.0000193651
 Pt         0.0000579228       -0.0000067861       -0.0000823362
 Pt         0.0000045099        0.0000025698       -0.0000902130
 Pt        -0.0000262004        0.0000905694       -0.0000663726
 Pt        -0.0000346723        0.0001162766       -0.0002332199
 Pt         0.0000663301        0.0000714724       -0.0000253570
 Pt         0.0000785047        0.0000406270       -0.0000959232
 Pt         0.0001018077        0.0000081313       -0.0000513977
 Pt         0.0001027267        0.0000435017       -0.0000752936
 Ni         0.0000910040        0.0003863359        0.0000207899
 Ni         0.0001498499        0.0004404003       -0.0001024168
 Ni         0.0000902368        0.0001489111       -0.0000851025
 Ni         0.0002525249       -0.0000164810       -0.0000176090
 Pt        -0.0002013252        0.0000351307       -0.0002421645
 Pt         0.0000248146        0.0000977261       -0.0001785589
 Ni        -0.0000292293       -0.0000215196       -0.0000264482
 Ni         0.0008265472       -0.0002289423        0.0001276989
 Pt        -0.0001803378       -0.0000917465       -0.0002880155
 Pt         0.0002250379       -0.0000416956       -0.0000364014
 Pt        -0.0000171287        0.0000844190       -0.0001318746
 Pt         0.0003688558        0.0000376265       -0.0001323321
 Pt        -0.0000272715        0.0000327559       -0.0001056775
 Pt         0.0000792248       -0.0001050303       -0.0000489803
 Ni         0.0001531546        0.0001621977        0.0002122982
 Pt         0.0000185173       -0.0000186838       -0.0000583736
 Pt         0.0000555923        0.0001031017       -0.0001193919
 Pt         0.0000703355        0.0000864529       -0.0001446978
 Ni         0.0000273866        0.0003297221        0.0000944820
 Pt         0.0001058142        0.0001696208       -0.0001407909
 Ni         0.0002389111       -0.0002475722        0.0002101285
 Pt        -0.0000174533        0.0000495062       -0.0001242365
 Pt        -0.0000483848       -0.0000454594       -0.0000227078
 Pt         0.0000641549       -0.0000380714       -0.0000701009
 Pt        -0.0003467552        0.0000665702       -0.0003091963
 Pt        -0.0001002308        0.0001241706       -0.0001654444
 Pt        -0.0003219910        0.0000425218       -0.0002569684
 Pt         0.0001373201       -0.0000111083       -0.0000917953
 Ni        -0.0003452927        0.0002795156        0.0000046939
 Pt        -0.0000140034        0.0001309728       -0.0000743812
 Ni         0.0000063440        0.0001737623       -0.0000084672
 Pt         0.0001674214        0.0000927796       -0.0001005858
 Ni        -0.0000101721       -0.0000749249        0.0001087767
 Ni        -0.0001479976        0.0000257574       -0.0000710361
 Ni        -0.0000515595       -0.0001024339       -0.0000957586
 Ni         0.0000646527        0.0003264113       -0.0001156287
 Pt        -0.0001780178        0.0001187787       -0.0001520540
 Pt        -0.0001838949        0.0000484721       -0.0001564276
 Pt        -0.0001624679        0.0000149086       -0.0001904800
 Pt        -0.0001615196        0.0000977519       -0.0001506889
 Pt        -0.0000285945        0.0001075128       -0.0000426195
 Pt         0.0000563002        0.0001022345       -0.0001865892
 Pt        -0.0000791517        0.0000070709       -0.0001280202
 Pt        -0.0000137705        0.0000218530       -0.0001836484
 Pt        -0.0001410646        0.0001462570       -0.0002198776
 Pt        -0.0001019277       -0.0000070710       -0.0001344372
 Pt        -0.0000810232        0.0000790978       -0.0002854175
 Pt        -0.0000325263        0.0000886966       -0.0001827426
      60
 i =        6, E =     -7949.3305209309
 Pt         0.0000889038        0.0000695982        0.0000467429
 Pt         0.0000099327        0.0000331793       -0.0000103766
 Pt         0.0001023980        0.0000276190        0.0000135936
 Pt         0.0000815303        0.0001075313        0.0000777203
 Pt         0.0001147946        0.0000592873       -0.0000628464
 Pt         0.0000959369        0.0000720252       -0.0001369865
 Pt         0.0001749678        0.0000097570       -0.0000655056
 Pt         0.0001739087        0.0000413665       -0.0002580551
 Pt        -0.0000323997        0.0000043509       -0.0000550816
 Pt        -0.0000274737        0.0001009415       -0.0000811818
 Pt        -0.0000861613        0.0000768420       -0.0001210890
 Pt        -0.0001115602       -0.0000183896       -0.0001387321
 Ni         0.0000388580       -0.0000908952       -0.0000049782
 Ni         0.0000815740       -0.0002279054       -0.0000539878
 Ni        -0.0003287726        0.0000916478       -0.0000775462
 Ni         0.0000837451        0.0000314438       -0.0000704936
 Pt         0.0000154309        0.0000526529       -0.0001461273
 Pt         0.0000644295       -0.0000133166       -0.0000523047
 Ni         0.0000304946        0.0000027015       -0.0000654066
 Ni         0.0006566054       -0.0001324533       -0.0003338643
 Pt         0.0000569564       -0.0000199549       -0.0001477757
 Pt         0.0000480652        0.0000635275       -0.0000148946
 Pt         0.0000683017        0.0000893809       -0.0000401560
 Pt         0.0000975145       -0.0000291475        0.0000258631
 Pt         0.0001159591        0.0000464740       -0.0001165609
 Pt         0.0000310813        0.0000974673       -0.0001070148
 Ni        -0.0001421865        0.0000501287       -0.0000511687
 Pt         0.0000066643        0.0000639104       -0.0000649275
 Pt         0.0000499927        0.0000295870       -0.0000934844
 Pt         0.0000317435        0.0000203912       -0.0001171662
 Ni        -0.0000562919        0.0002534287        0.0002387968
 Pt         0.0000283969        0.0001150517       -0.0001526206
 Ni         0.0000435240       -0.0000925796        0.0002198527
 Pt         0.0000589122        0.0000524982       -0.0000965741
 Pt         0.0000117580       -0.0000134380       -0.0000971763
 Pt         0.0000724668        0.0000632252       -0.0001037417
 Pt        -0.0001030297        0.0001770042       -0.0003219129
 Pt        -0.0000787758        0.0000372321       -0.0002163297
 Pt        -0.0001027779       -0.0000345838       -0.0002696881
 Pt        -0.0000122874        0.0000872236       -0.0001886327
 Ni        -0.0003311505        0.0003158370       -0.0000275344
 Pt        -0.0000561780        0.0001484130       -0.0001659094
 Ni         0.0000796009        0.0001518905       -0.0001373414
 Pt         0.0000003352       -0.0000256543       -0.0001421367
 Ni        -0.0000047838       -0.0000269386       -0.0000979719
 Ni        -0.0000485679       -0.0000927061       -0.0000379469
 Ni         0.0000515348        0.0000351706       -0.0000240337
 Ni         0.0000417997       -0.0000229585       -0.0000131685
 Pt         0.0000240805        0.0000053728       -0.0000114624
 Pt         0.0000155450        0.0001050415       -0.0000378893
 Pt        -0.0000189764        0.0001498205       -0.0000964516
 Pt        -0.0000200613        0.0000539875       -0.0001018881
 Pt        -0.0002191629        0.0000626770        0.0000456391
 Pt        -0.0001725452        0.0000614626       -0.0000499596
 Pt        -0.0001168262        0.0000958861       -0.0000612059
 Pt        -0.0001498107        0.0000758202       -0.0000410028
 Pt        -0.0001336581        0.0000082987       -0.0002200402
 Pt        -0.0001396877        0.0001116021       -0.0001863155
 Pt        -0.0000267242        0.0000659503       -0.0001842376
 Pt        -0.0001039864        0.0000574310       -0.0001466211
      60
 i =        7, E =     -7949.3305477018
 Pt         0.0000441114        0.0000408921        0.0000825401
 Pt         0.0000321451       -0.0000328147        0.0000165527
 Pt         0.0001561343       -0.0000497305        0.0000092675
 Pt         0.0001465879        0.0000595427        0.0000972335
 Pt         0.0001138983        0.0000985850        0.0000074509
 Pt         0.0001235971        0.0000814210       -0.0001130312
 Pt         0.0001886278       -0.0000305286       -0.0000373332
 Pt         0.0002616228       -0.0000069496       -0.0001224240
 Pt        -0.0000192405        0.0000389725       -0.0000865244
 Pt        -0.0000222934        0.0000876774       -0.0000453982
 Pt        -0.0001160970        0.0000416526       -0.0001975864
 Pt        -0.0001189895       -0.0000165007       -0.0001654257
 Ni        -0.0000515233       -0.0000889554       -0.0000665312
 Ni         0.0000710339       -0.0001764845       -0.0001447007
 Ni        -0.0001832239       -0.0000009323       -0.0001319524
 Ni        -0.0001183845        0.0001687071       -0.0000381633
 Pt         0.0002308214       -0.0000220833        0.0000237295
 Pt         0.0001128611       -0.0000308568       -0.0000371365
 Ni         0.0000596910        0.0000261027       -0.0000423696
 Ni        -0.0008194420        0.0002827263       -0.0002214431
 Pt         0.0002447845        0.0000607066        0.0000728207
 Pt        -0.0001633739        0.0001386822       -0.0000597305
 Pt         0.0001649686       -0.0000145129        0.0000196478
 Pt        -0.0001868972       -0.0000350799        0.0000207581
 Pt         0.0001002151        0.0000973130       -0.0000405892
 Pt         0.0000078362        0.0001742857       -0.0001170249
 Ni        -0.0003721830       -0.0001923968       -0.0000375211
 Pt         0.0000122512        0.0001004982       -0.0001227869
 Pt         0.0000225139       -0.0000013840       -0.0000554038
 Pt         0.0000124514       -0.0000896763       -0.0000451967
 Ni        -0.0001927944        0.0003265119        0.0004348384
 Pt         0.0000285041       -0.0000843876       -0.0000610572
 Ni        -0.0004125144        0.0001434326        0.0002805813
 Pt         0.0000637989       -0.0000208158       -0.0000493199
 Pt        -0.0000297704        0.0000985978       -0.0001253685
 Pt         0.0000276874        0.0001016641       -0.0001322962
 Pt         0.0001770009        0.0001491265       -0.0001433113
 Pt        -0.0000140770        0.0000180755       -0.0001803709
 Pt         0.0001570644        0.0000208029       -0.0001783981
 Pt        -0.0001624513        0.0001381889       -0.0001918780
 Ni         0.0000179864        0.0001151961       -0.0000490027
 Pt        -0.0000664905        0.0000848065       -0.0001821487
 Ni         0.0000180486        0.0000062316       -0.0001270472
 Pt        -0.0002179013       -0.0000044122       -0.0001489705
 Ni        -0.0000293271        0.0000318842       -0.0001313761
 Ni         0.0001411022       -0.0003002053       -0.0000045655
 Ni         0.0000845211        0.0000665857        0.0000641996
 Ni         0.0000104157       -0.0002303422        0.0000976512
 Pt         0.0001163782       -0.0000272849        0.0000608364
 Pt         0.0000741614        0.0000833848        0.0000254807
 Pt         0.0000403298        0.0001826085       -0.0000349028
 Pt         0.0000155957        0.0000419349       -0.0000566252
 Pt        -0.0002541583        0.0000337071        0.0000585872
 Pt        -0.0002990286        0.0000449978       -0.0000104918
 Pt        -0.0001177165        0.0001400744       -0.0000492056
 Pt        -0.0001765963        0.0001302940        0.0000397962
 Pt        -0.0001386725       -0.0000318392       -0.0001933068
 Pt        -0.0001541661        0.0001703880       -0.0001955051
 Pt         0.0000034833        0.0000467097       -0.0000627953
 Pt        -0.0000937381        0.0000303322       -0.0001059538
      60
 i =        8, E =     -7949.3305648690
 Pt         0.0000563615        0.0000061104        0.0000119672
 Pt         0.0000445168       -0.0000012656       -0.0000418425
 Pt         0.0000895174       -0.0000339411       -0.0000426237
 Pt         0.0000909043        0.0000456459       -0.0000038893
 Pt         0.0000538750        0.0000824191       -0.0000324077
 Pt         0.0000922999        0.0000522440       -0.0000757338
 Pt         0.0001073059       -0.0000074221       -0.0000407224
 Pt         0.0001298123        0.0000006229       -0.0000174196
 Pt         0.0000274062        0.0000278661       -0.0000782248
 Pt         0.0000212771        0.0000670280       -0.0000334195
 Pt        -0.0000067087        0.0000268722       -0.0001448084
 Pt         0.0000060111        0.0000114389       -0.0001062544
 Ni        -0.0000737280       -0.0001234199       -0.0001055292
 Ni         0.0000005478       -0.0001847842       -0.0001770282
 Ni         0.0000471850       -0.0000407460       -0.0001500172
 Ni        -0.0000963809        0.0000484525       -0.0000509747
 Pt         0.0001897554       -0.0000168843        0.0000495310
 Pt         0.0000720116        0.0000706969       -0.0000523459
 Ni        -0.0000006441        0.0000039128       -0.0000161798
 Ni        -0.0002147917        0.0003759231        0.0000007324
 Pt         0.0001846038        0.0001137349        0.0000875205
 Pt        -0.0001553658        0.0000625294       -0.0000998831
 Pt         0.0000926875       -0.0000400160       -0.0000153373
 Pt        -0.0002135326        0.0000383491       -0.0000673064
 Pt         0.0000358093        0.0000641855       -0.0000207513
 Pt        -0.0000239731        0.0001114743       -0.0000839735
 Ni        -0.0000603697       -0.0001707718       -0.0001502824
 Pt         0.0000088366        0.0000767938       -0.0001095929
 Pt        -0.0000158039        0.0000245715       -0.0000335981
 Pt         0.0000120888       -0.0000282685       -0.0000230593
 Ni        -0.0000988674        0.0004053653       -0.0001295828
 Pt        -0.0000240074       -0.0000855611       -0.0000055128
 Ni        -0.0002110796        0.0002310028       -0.0001582964
 Pt         0.0000572704        0.0000248602       -0.0000469809
 Pt         0.0000025032        0.0000732496       -0.0001009981
 Pt        -0.0000349660        0.0000913022       -0.0000826681
 Pt         0.0001729365        0.0000552579       -0.0000149342
 Pt        -0.0000051905        0.0000233615       -0.0000635488
 Pt         0.0001817079        0.0000472360       -0.0000328104
 Pt        -0.0001463800        0.0001144361       -0.0000992707
 Ni         0.0000870583        0.0000129273       -0.0000699982
 Pt        -0.0000469794        0.0000587486       -0.0000994421
 Ni        -0.0000018408       -0.0000069869       -0.0000758519
 Pt        -0.0002090110        0.0000231704       -0.0000982881
 Ni        -0.0000724435        0.0000211861       -0.0001448578
 Ni         0.0000066875        0.0000268663       -0.0000097369
 Ni         0.0000543538        0.0000529234        0.0000373578
 Ni        -0.0000304068       -0.0001565917        0.0000517865
 Pt        -0.0000012682        0.0000351374        0.0000142628
 Pt        -0.0000127312        0.0000564636       -0.0000123327
 Pt        -0.0000261706        0.0001002261       -0.0000362126
 Pt        -0.0000397881        0.0000619789       -0.0000396473
 Pt        -0.0001320002        0.0000365175       -0.0000241629
 Pt        -0.0001800142        0.0000543689       -0.0000267238
 Pt        -0.0000878696        0.0001075745       -0.0000657495
 Pt        -0.0001042518        0.0001044408        0.0000406758
 Pt        -0.0000910220        0.0000235053       -0.0001023613
 Pt        -0.0001019946        0.0001067322       -0.0000922106
 Pt        -0.0000428804        0.0000613860        0.0000011120
 Pt        -0.0000654356        0.0000462550       -0.0000471017
