      60
 i =        1, E =     -7949.3286679391
 Pt        -0.0009142739        0.0001196685        0.0006882626
 Pt        -0.0002881488        0.0001567214       -0.0004974887
 Pt         0.0009519217        0.0002481588        0.0003644300
 Pt         0.0008719589       -0.0003927113        0.0002717770
 Pt        -0.0002615862       -0.0001337324       -0.0019545712
 Pt         0.0005412566       -0.0004900003       -0.0020141239
 Pt         0.0002639941        0.0002509063       -0.0034087081
 Pt         0.0011080786        0.0005387038       -0.0030177452
 Pt         0.0000960131        0.0011933446       -0.0015895017
 Pt        -0.0003017058        0.0004998080       -0.0016218963
 Pt        -0.0004538828       -0.0007979550       -0.0027714785
 Pt        -0.0010964882       -0.0000731009       -0.0028467369
 Ni         0.0001521381       -0.0010494378        0.0000223701
 Ni        -0.0004848344       -0.0009133571        0.0002433876
 Ni         0.0002956830       -0.0017063711       -0.0000674041
 Ni        -0.0007223994       -0.0002415693        0.0016654926
 Pt         0.0013845273       -0.0010445507        0.0004781768
 Pt         0.0000724566        0.0013947849        0.0005379092
 Ni        -0.0016144018       -0.0013066060        0.0023723550
 Ni         0.0013238846        0.0017322346        0.0042036832
 Pt         0.0011124970       -0.0003653294        0.0003537635
 Pt        -0.0017382551        0.0000647716       -0.0001470819
 Pt        -0.0003637786        0.0017918171        0.0006374193
 Pt        -0.0018865758       -0.0009428512        0.0000035663
 Pt         0.0002126622       -0.0000011187        0.0001341136
 Pt         0.0003663408        0.0007970255        0.0001354181
 Ni        -0.0004182031        0.0022041753       -0.0012250865
 Pt         0.0000949863        0.0003900638        0.0001472949
 Pt         0.0006109317        0.0003701681       -0.0001618168
 Pt         0.0002617898        0.0002690420       -0.0003715520
 Ni         0.0030166546       -0.0007463324       -0.0006824677
 Pt         0.0002673754       -0.0002150172        0.0000443418
 Ni        -0.0008183583       -0.0022026631       -0.0009725292
 Pt        -0.0001401330       -0.0000301879        0.0002663131
 Pt         0.0004531163       -0.0000543988       -0.0005120591
 Pt         0.0002206570        0.0002952564        0.0005534573
 Pt         0.0019305248       -0.0013254427        0.0000403732
 Pt         0.0005037634        0.0018432774       -0.0005384731
 Pt         0.0018419134        0.0002037347        0.0001062841
 Pt        -0.0006870934       -0.0007484970       -0.0006169801
 Ni        -0.0016775417       -0.0013520638       -0.0024406246
 Pt         0.0000165747        0.0008583140       -0.0004288508
 Ni        -0.0010603622        0.0002505879       -0.0031964499
 Pt        -0.0008771877       -0.0005025692       -0.0006081713
 Ni        -0.0005193034        0.0002290920       -0.0018980336
 Ni        -0.0007382654        0.0008621263        0.0001452599
 Ni         0.0014965353        0.0004806124        0.0008924325
 Ni        -0.0008325686        0.0012322201        0.0008463838
 Pt         0.0009243318       -0.0000416270        0.0029428030
 Pt         0.0004205984       -0.0008121044        0.0029341932
 Pt         0.0002451812        0.0005002034        0.0017013144
 Pt         0.0000229412        0.0011229654        0.0013845955
 Pt        -0.0012442025        0.0003932611        0.0027756025
 Pt        -0.0003590883        0.0001565889        0.0035223224
 Pt        -0.0004812202       -0.0002959251        0.0021380022
 Pt         0.0002081180       -0.0002936863        0.0019061821
 Pt        -0.0007804882        0.0001890009       -0.0004004061
 Pt        -0.0006610479       -0.0006121292       -0.0007458495
 Pt         0.0003300835        0.0000472857        0.0006789108
 Pt         0.0007346586        0.0002503705       -0.0004780863
      60
 i =        2, E =     -7949.3300084582
 Pt         0.0005574647        0.0000382637       -0.0007478791
 Pt         0.0002987927       -0.0000141043       -0.0011747182
 Pt        -0.0001688334       -0.0002641435       -0.0009707620
 Pt        -0.0002001751        0.0003604102       -0.0009467386
 Pt         0.0004049634        0.0002939686       -0.0009898125
 Pt         0.0003012888        0.0002106846       -0.0004459617
 Pt         0.0006437611       -0.0000367498       -0.0008775738
 Pt         0.0003987239       -0.0000024225        0.0001343788
 Pt        -0.0002388600       -0.0000524177       -0.0004482625
 Pt        -0.0004232594        0.0003660450       -0.0004830535
 Pt        -0.0003654734        0.0002132156       -0.0001594871
 Pt        -0.0005430005       -0.0002070843       -0.0003332054
 Ni        -0.0001807113       -0.0000361866       -0.0004630002
 Ni        -0.0003538063       -0.0006721705       -0.0003985826
 Ni        -0.0012019945       -0.0002112635       -0.0002966393
 Ni        -0.0013294802        0.0002581574        0.0001187448
 Pt         0.0007768610       -0.0001513825        0.0004106561
 Pt         0.0001785930        0.0001065420        0.0000221534
 Ni         0.0002185428        0.0003140270        0.0002253469
 Ni         0.0017254903        0.0018095516        0.0000907272
 Pt         0.0005192701        0.0003376050        0.0004094373
 Pt        -0.0006256834        0.0001841649       -0.0003176484
 Pt         0.0000226909       -0.0002755804       -0.0001605789
 Pt        -0.0008488153        0.0001196335       -0.0002080172
 Pt         0.0001532372        0.0001233917        0.0000484422
 Pt         0.0001697536        0.0004678297       -0.0000882208
 Ni         0.0012597708       -0.0010383165       -0.0017301438
 Pt         0.0001432380        0.0001425511       -0.0000129831
 Pt        -0.0000646772       -0.0000817527        0.0001191049
 Pt         0.0001093087        0.0000686897        0.0001280188
 Ni        -0.0016662127       -0.0003852545       -0.0013960225
 Pt         0.0000560660       -0.0004200881       -0.0003732820
 Ni         0.0010188062        0.0010258047       -0.0015930981
 Pt         0.0001589930        0.0001611512        0.0000730182
 Pt        -0.0000025156        0.0002765211        0.0001966128
 Pt         0.0004173284        0.0004514808       -0.0002453181
 Pt         0.0012688507        0.0000632146        0.0005297946
 Pt         0.0003896522        0.0000552980        0.0003424237
 Pt         0.0012627900        0.0003044983       -0.0000437382
 Pt        -0.0004445831        0.0002762876        0.0000330355
 Ni        -0.0003565716        0.0006180573       -0.0000301900
 Pt         0.0000881926        0.0001413911       -0.0002311049
 Ni        -0.0003905115        0.0001630215        0.0001933400
 Pt        -0.0006088681       -0.0001341803       -0.0001213500
 Ni         0.0000706635       -0.0002968470       -0.0002984933
 Ni        -0.0011192191        0.0001146637        0.0002461841
 Ni         0.0001311517        0.0005006905        0.0000841095
 Ni        -0.0000142636       -0.0012432097        0.0002344908
 Pt         0.0004318775       -0.0002262213        0.0002611605
 Pt         0.0002441450        0.0002349765        0.0002566827
 Pt         0.0005636289        0.0004060721        0.0004609758
 Pt         0.0001793330       -0.0002153048        0.0004036118
 Pt        -0.0003329887        0.0000290705       -0.0000824947
 Pt        -0.0007642321       -0.0000811875        0.0005386245
 Pt        -0.0002225139        0.0002112879        0.0003919918
 Pt        -0.0004779147        0.0003731831        0.0008406628
 Pt         0.0002720325       -0.0002993797        0.0009578559
 Pt        -0.0000772545        0.0005047721        0.0008280292
 Pt        -0.0002724018        0.0000010353        0.0011031092
 Pt        -0.0005727277       -0.0001049586        0.0008267733
      60
 i =        3, E =     -7949.3302949626
 Pt         0.0002292184        0.0000203528       -0.0005394493
 Pt         0.0001082233       -0.0000261497       -0.0006547875
 Pt        -0.0001487368        0.0000959807       -0.0007584878
 Pt        -0.0001054598        0.0001523961       -0.0007195236
 Pt         0.0000676999        0.0001447741       -0.0003843087
 Pt        -0.0000747310        0.0002711615        0.0000144385
 Pt         0.0000506110        0.0000929763       -0.0001662730
 Pt        -0.0001816987       -0.0000360289        0.0003611118
 Pt         0.0001029324       -0.0000906196       -0.0000913812
 Pt         0.0001213250       -0.0000625974       -0.0002510022
 Pt         0.0001735838        0.0002693504        0.0002685575
 Pt         0.0002648245        0.0001205515        0.0001468893
 Ni         0.0000657989       -0.0001882796       -0.0001979132
 Ni        -0.0001794619       -0.0001310160       -0.0002593481
 Ni         0.0002480503       -0.0000464767       -0.0002272635
 Ni        -0.0004418284       -0.0002786763        0.0001547694
 Pt         0.0002644761        0.0001582370       -0.0002360379
 Pt         0.0000453826       -0.0003127712       -0.0000935712
 Ni         0.0000918063        0.0000576652       -0.0000165678
 Ni         0.0008259534       -0.0000171422       -0.0009618198
 Pt         0.0000369157        0.0003362808       -0.0003887959
 Pt        -0.0000641300        0.0003551004       -0.0003092786
 Pt        -0.0000414433       -0.0000746544       -0.0002821158
 Pt        -0.0001735720        0.0000592110       -0.0002455833
 Pt         0.0000412366       -0.0000067324       -0.0000488575
 Pt         0.0000772867        0.0002372865       -0.0002167190
 Ni         0.0000379893        0.0014045160       -0.0018353664
 Pt         0.0000566671       -0.0000137191        0.0000574265
 Pt        -0.0000133193        0.0000918085       -0.0000099890
 Pt         0.0001743124        0.0001256138        0.0000119145
 Ni         0.0009992907        0.0002438586       -0.0015332801
 Pt         0.0001142643       -0.0002057572       -0.0001673817
 Ni        -0.0001842653       -0.0012379407       -0.0018181729
 Pt        -0.0000401944        0.0001937998        0.0001054063
 Pt         0.0003264541        0.0001659246       -0.0001328344
 Pt        -0.0001116020        0.0001891671       -0.0003543625
 Pt         0.0003738148        0.0001139029        0.0004030052
 Pt         0.0002515757       -0.0002414082        0.0002940018
 Pt         0.0001096798        0.0003673844        0.0006061103
 Pt         0.0000073055        0.0001855284        0.0001941294
 Ni        -0.0005415664        0.0000559326        0.0005797506
 Pt         0.0000053102       -0.0002097331        0.0003001726
 Ni         0.0000649977        0.0001910001        0.0002412115
 Pt        -0.0000617673        0.0002542287        0.0002114981
 Ni        -0.0002597298        0.0003464945        0.0004693967
 Ni        -0.0008018794        0.0001596516        0.0000486316
 Ni        -0.0002251031       -0.0000609116       -0.0000707060
 Ni         0.0000748752       -0.0005859190       -0.0000418907
 Pt        -0.0002450123        0.0001094160       -0.0003206245
 Pt        -0.0001527308        0.0001609885       -0.0003314107
 Pt        -0.0002196943       -0.0000305351        0.0000501017
 Pt        -0.0000271255       -0.0000433963       -0.0000243368
 Pt         0.0001032968       -0.0000006975       -0.0005902914
 Pt        -0.0000285475        0.0000441862       -0.0000256789
 Pt        -0.0000444879        0.0001883032       -0.0000905773
 Pt        -0.0001587269        0.0001361760        0.0000141656
 Pt         0.0000425642        0.0000752327        0.0006168345
 Pt         0.0001929712        0.0001410186        0.0004751389
 Pt        -0.0002742996        0.0000309135        0.0004843931
 Pt        -0.0002705309        0.0000572696        0.0002968815
      60
 i =        4, E =     -7949.3304262263
 Pt        -0.0000973522        0.0001265478       -0.0003177282
 Pt         0.0000246840        0.0001597316       -0.0001756909
 Pt        -0.0000015122        0.0002157615       -0.0002106249
 Pt         0.0000458100       -0.0001371728       -0.0003077046
 Pt        -0.0001561614       -0.0001122544       -0.0001257429
 Pt        -0.0001415932       -0.0000225591        0.0000096392
 Pt        -0.0003350881        0.0001638030        0.0000698847
 Pt        -0.0003125258        0.0000947140        0.0001075401
 Pt         0.0002879119        0.0001874201        0.0000085086
 Pt         0.0003040538       -0.0000935098       -0.0000762177
 Pt         0.0004131547        0.0000357245        0.0001184464
 Pt         0.0004662893        0.0002336399        0.0000651924
 Ni         0.0001618026        0.0000889479       -0.0000509652
 Ni         0.0000971503        0.0004302898       -0.0001651433
 Ni         0.0004448316        0.0001503843       -0.0001163038
 Ni         0.0003958787       -0.0000997116        0.0000232717
 Pt        -0.0003236917        0.0002907840       -0.0001158705
 Pt        -0.0000566763        0.0000806180       -0.0002023392
 Ni        -0.0001137413       -0.0001407305        0.0000369206
 Ni        -0.0005640564       -0.0025518672        0.0003555476
 Pt        -0.0003896388       -0.0000834651       -0.0002408854
 Pt         0.0003405559       -0.0000250297       -0.0001220632
 Pt        -0.0000130137        0.0000844464       -0.0002633177
 Pt         0.0005370700        0.0001180836       -0.0002430099
 Pt        -0.0000819848        0.0000620730       -0.0001797158
 Pt         0.0000368015       -0.0002288164       -0.0001739849
 Ni         0.0006129494       -0.0000367263        0.0002786896
 Pt         0.0000628610       -0.0000373831       -0.0001047158
 Pt         0.0000723579        0.0000855549       -0.0002253924
 Pt         0.0000772109        0.0001237085       -0.0000638070
 Ni         0.0001942131        0.0004304066       -0.0001865540
 Pt         0.0000450475        0.0002209375       -0.0001413194
 Ni         0.0005975383        0.0002024549       -0.0003359416
 Pt        -0.0000152523        0.0001500644       -0.0001384821
 Pt         0.0001467605        0.0000220683       -0.0000969126
 Pt         0.0000068078       -0.0000945058       -0.0001256957
 Pt        -0.0004924491       -0.0001409375        0.0000535409
 Pt        -0.0000704332        0.0001306145        0.0000660368
 Pt        -0.0005202982        0.0001716241        0.0001417790
 Pt         0.0002310988       -0.0001083554       -0.0000022152
 Ni        -0.0004643507        0.0000729012        0.0001681253
 Pt         0.0000465800       -0.0000555317        0.0001183226
 Ni        -0.0001617181        0.0001458204        0.0002820580
 Pt         0.0002666750        0.0004096125        0.0000435171
 Ni        -0.0001162029        0.0000376637        0.0002423544
 Ni        -0.0002561010        0.0000365914       -0.0000449786
 Ni        -0.0002365237       -0.0002318123       -0.0001152551
 Ni         0.0000238592        0.0003759681       -0.0001747126
 Pt        -0.0004923888        0.0002889498       -0.0003913688
 Pt        -0.0003785913       -0.0000224037       -0.0003982175
 Pt        -0.0003623010       -0.0001312136       -0.0002960948
 Pt        -0.0003024079        0.0001703774       -0.0002335261
 Pt         0.0002438414        0.0000899193       -0.0003844117
 Pt         0.0002390724        0.0001607386       -0.0005331754
 Pt        -0.0000240839       -0.0000981579       -0.0002987159
 Pt         0.0001372410       -0.0000546223       -0.0003335637
 Pt        -0.0000404556        0.0002578691       -0.0000890234
 Pt         0.0000018014       -0.0001493541        0.0000197715
 Pt        -0.0001714600        0.0001866225       -0.0002175933
 Pt         0.0000369607        0.0001473252       -0.0001175759
      60
 i =        5, E =     -7949.3304861448
 Pt        -0.0000163203        0.0000611115       -0.0000808168
 Pt         0.0000516228        0.0000858629       -0.0000268974
 Pt         0.0000043295        0.0001209976       -0.0000016524
 Pt         0.0000343418        0.0000185055       -0.0000206496
 Pt         0.0000585265       -0.0000061559       -0.0000857336
 Pt         0.0000046399        0.0000026316       -0.0000932946
 Pt        -0.0000255755        0.0000906222       -0.0000699874
 Pt        -0.0000346909        0.0001161843       -0.0002366335
 Pt         0.0000656639        0.0000711624       -0.0000264826
 Pt         0.0000776330        0.0000400809       -0.0000968463
 Pt         0.0001015424        0.0000081776       -0.0000524889
 Pt         0.0001019631        0.0000437157       -0.0000759276
 Ni         0.0000908410        0.0003862775        0.0000226268
 Ni         0.0001494681        0.0004399073       -0.0001012083
 Ni         0.0000905322        0.0001488273       -0.0000833728
 Ni         0.0002519818       -0.0000165180       -0.0000157708
 Pt        -0.0002006822        0.0000351842       -0.0002411224
 Pt         0.0000251636        0.0000976316       -0.0001764836
 Ni        -0.0000294237       -0.0000217436       -0.0000239339
 Ni         0.0008272323       -0.0002277100        0.0001302915
 Pt        -0.0001799047       -0.0000918350       -0.0002866668
 Pt         0.0002256763       -0.0000418683       -0.0000350133
 Pt        -0.0000164466        0.0000847319       -0.0001304397
 Pt         0.0003691487        0.0000375824       -0.0001304988
 Pt        -0.0000279917        0.0000330962       -0.0001047095
 Pt         0.0000804028       -0.0001047465       -0.0000458816
 Ni         0.0001546889        0.0001622524        0.0002123462
 Pt         0.0000176831       -0.0000188849       -0.0000569554
 Pt         0.0000547192        0.0001033139       -0.0001182072
 Pt         0.0000696264        0.0000865695       -0.0001433083
 Ni         0.0000284896        0.0003297034        0.0000947747
 Pt         0.0001061169        0.0001695667       -0.0001374734
 Ni         0.0002395136       -0.0002477431        0.0002106699
 Pt        -0.0000186454        0.0000496302       -0.0001224525
 Pt        -0.0000484602       -0.0000461330       -0.0000220009
 Pt         0.0000645027       -0.0000378765       -0.0000674329
 Pt        -0.0003467443        0.0000669560       -0.0003066114
 Pt        -0.0000995568        0.0001232435       -0.0001634686
 Pt        -0.0003214580        0.0000425748       -0.0002548822
 Pt         0.0001375928       -0.0000105574       -0.0000892794
 Ni        -0.0003455518        0.0002791754        0.0000066914
 Pt        -0.0000139640        0.0001311477       -0.0000718814
 Ni         0.0000066468        0.0001735582       -0.0000060480
 Pt         0.0001685479        0.0000927066       -0.0001000246
 Ni        -0.0000102380       -0.0000750341        0.0001112242
 Ni        -0.0001484285        0.0000264652       -0.0000688317
 Ni        -0.0000519266       -0.0001021554       -0.0000938714
 Ni         0.0000646022        0.0003262682       -0.0001136695
 Pt        -0.0001788006        0.0001190897       -0.0001538601
 Pt        -0.0001849237        0.0000482718       -0.0001564359
 Pt        -0.0001632147        0.0000151691       -0.0001914749
 Pt        -0.0001620560        0.0000971211       -0.0001525637
 Pt        -0.0000280854        0.0001074768       -0.0000466902
 Pt         0.0000565602        0.0001022050       -0.0001893378
 Pt        -0.0000799818        0.0000073491       -0.0001320254
 Pt        -0.0000123328        0.0000221250       -0.0001867992
 Pt        -0.0001413925        0.0001469595       -0.0002217161
 Pt        -0.0001024706       -0.0000075502       -0.0001352729
 Pt        -0.0000801185        0.0000789262       -0.0002894742
 Pt        -0.0000328891        0.0000883860       -0.0001856687
      60
 i =        6, E =     -7949.3305208727
 Pt         0.0000890771        0.0000698564        0.0000509432
 Pt         0.0000098584        0.0000334999       -0.0000068135
 Pt         0.0001024621        0.0000275037        0.0000153448
 Pt         0.0000814655        0.0001072615        0.0000795151
 Pt         0.0001147603        0.0000588174       -0.0000590886
 Pt         0.0000961325        0.0000718253       -0.0001330464
 Pt         0.0001750331        0.0000098885       -0.0000617775
 Pt         0.0001742128        0.0000414792       -0.0002537770
 Pt        -0.0000325328        0.0000046283       -0.0000532983
 Pt        -0.0000275754        0.0001012661       -0.0000795761
 Pt        -0.0000864447        0.0000767615       -0.0001195810
 Pt        -0.0001117122       -0.0000184982       -0.0001373295
 Ni         0.0000390347       -0.0000912729       -0.0000065851
 Ni         0.0000815077       -0.0002283366       -0.0000555995
 Ni        -0.0003294581        0.0000913767       -0.0000791875
 Ni         0.0000831586        0.0000316555       -0.0000739651
 Pt         0.0000157490        0.0000527349       -0.0001484489
 Pt         0.0000644252       -0.0000132920       -0.0000549111
 Ni         0.0000305200        0.0000026098       -0.0000687912
 Ni         0.0006576114       -0.0001317955       -0.0003376909
 Pt         0.0000570779       -0.0000197291       -0.0001498094
 Pt         0.0000478628        0.0000635456       -0.0000174123
 Pt         0.0000682085        0.0000891148       -0.0000426676
 Pt         0.0000970924       -0.0000289736        0.0000232785
 Pt         0.0001174160        0.0000463175       -0.0001172482
 Pt         0.0000290192        0.0000978831       -0.0001102950
 Ni        -0.0001418966        0.0000505768       -0.0000571670
 Pt         0.0000082010        0.0000636293       -0.0000658118
 Pt         0.0000513168        0.0000297666       -0.0000940750
 Pt         0.0000333263        0.0000208514       -0.0001177417
 Ni        -0.0000581600        0.0002531232        0.0002323559
 Pt         0.0000265613        0.0001146200       -0.0001554798
 Ni         0.0000434586       -0.0000927251        0.0002135505
 Pt         0.0000603879        0.0000528743       -0.0000971823
 Pt         0.0000129014       -0.0000134570       -0.0000976100
 Pt         0.0000709415        0.0000634334       -0.0001063973
 Pt        -0.0001026338        0.0001765525       -0.0003237384
 Pt        -0.0000787873        0.0000378538       -0.0002179935
 Pt        -0.0001022755       -0.0000345740       -0.0002711314
 Pt        -0.0000128746        0.0000867252       -0.0001904622
 Ni        -0.0003314197        0.0003154886       -0.0000307391
 Pt        -0.0000563800        0.0001487724       -0.0001677112
 Ni         0.0000792788        0.0001518508       -0.0001408102
 Pt        -0.0000001991       -0.0000258527       -0.0001436242
 Ni        -0.0000046326       -0.0000272773       -0.0001017091
 Ni        -0.0000492481       -0.0000917559       -0.0000390946
 Ni         0.0000519092        0.0000354667       -0.0000255555
 Ni         0.0000418727       -0.0000233327       -0.0000143061
 Pt         0.0000240294        0.0000049770       -0.0000094344
 Pt         0.0000160669        0.0001051126       -0.0000353752
 Pt        -0.0000188541        0.0001502042       -0.0000944077
 Pt        -0.0000200537        0.0000542465       -0.0000999147
 Pt        -0.0002191161        0.0000627986        0.0000489669
 Pt        -0.0001729014        0.0000615018       -0.0000466377
 Pt        -0.0001164617        0.0000957363       -0.0000572013
 Pt        -0.0001505221        0.0000756791       -0.0000375815
 Pt        -0.0001336928        0.0000078522       -0.0002179055
 Pt        -0.0001396989        0.0001118143       -0.0001842605
 Pt        -0.0000267957        0.0000660136       -0.0001797369
 Pt        -0.0001043939        0.0000575071       -0.0001429069
      60
 i =        7, E =     -7949.3305476398
 Pt         0.0000439441        0.0000404470        0.0000759192
 Pt         0.0000318806       -0.0000329011        0.0000111503
 Pt         0.0001561867       -0.0000493087        0.0000061900
 Pt         0.0001464473        0.0000604466        0.0000945244
 Pt         0.0001142869        0.0000989891        0.0000010620
 Pt         0.0001229820        0.0000824343       -0.0001183482
 Pt         0.0001885848       -0.0000308970       -0.0000433712
 Pt         0.0002613467       -0.0000069102       -0.0001285129
 Pt        -0.0000190961        0.0000382091       -0.0000888402
 Pt        -0.0000221707        0.0000871879       -0.0000478921
 Pt        -0.0001162269        0.0000422911       -0.0001994773
 Pt        -0.0001189621       -0.0000167022       -0.0001672533
 Ni        -0.0000511906       -0.0000891935       -0.0000637236
 Ni         0.0000713599       -0.0001771556       -0.0001417652
 Ni        -0.0001844057       -0.0000005361       -0.0001291838
 Ni        -0.0001177642        0.0001681559       -0.0000332459
 Pt         0.0002296493       -0.0000223512        0.0000262623
 Pt         0.0001123040       -0.0000307975       -0.0000340903
 Ni         0.0000596186        0.0000265918       -0.0000376850
 Ni        -0.0008124827        0.0002815428       -0.0002186668
 Pt         0.0002444966        0.0000603955        0.0000747758
 Pt        -0.0001623237        0.0001385794       -0.0000558028
 Pt         0.0001647522       -0.0000143708        0.0000228683
 Pt        -0.0001861498       -0.0000347012        0.0000243321
 Pt         0.0000988365        0.0000978978       -0.0000399615
 Pt         0.0000105415        0.0001739620       -0.0001137168
 Ni        -0.0003734396       -0.0001907578       -0.0000273728
 Pt         0.0000100487        0.0001018864       -0.0001216379
 Pt         0.0000208680       -0.0000026398       -0.0000549214
 Pt         0.0000106937       -0.0000907386       -0.0000447005
 Ni        -0.0001892118        0.0003259859        0.0004475012
 Pt         0.0000315193       -0.0000831204       -0.0000590944
 Ni        -0.0004105432        0.0001413302        0.0002933001
 Pt         0.0000621723       -0.0000217156       -0.0000488797
 Pt        -0.0000316557        0.0000998222       -0.0001248082
 Pt         0.0000304250        0.0001014319       -0.0001296811
 Pt         0.0001755009        0.0001498305       -0.0001425778
 Pt        -0.0000144911        0.0000176920       -0.0001785171
 Pt         0.0001556785        0.0000208403       -0.0001767396
 Pt        -0.0001617036        0.0001383430       -0.0001901747
 Ni         0.0000162518        0.0001166813       -0.0000425890
 Pt        -0.0000666876        0.0000841394       -0.0001804496
 Ni         0.0000182134        0.0000063981       -0.0001212956
 Pt        -0.0002173060       -0.0000041668       -0.0001464201
 Ni        -0.0000290227        0.0000326809       -0.0001248239
 Ni         0.0001416456       -0.0003017732       -0.0000031577
 Ni         0.0000840133        0.0000665361        0.0000655976
 Ni         0.0000104094       -0.0002293557        0.0000989212
 Pt         0.0001165793       -0.0000272268        0.0000584811
 Pt         0.0000743675        0.0000842709        0.0000228246
 Pt         0.0000407507        0.0001820317       -0.0000370943
 Pt         0.0000156990        0.0000412119       -0.0000589426
 Pt        -0.0002547257        0.0000334995        0.0000543720
 Pt        -0.0002990552        0.0000446134       -0.0000155320
 Pt        -0.0001179834        0.0001404656       -0.0000539934
 Pt        -0.0001771296        0.0001309707        0.0000345188
 Pt        -0.0001385294       -0.0000317753       -0.0001952546
 Pt        -0.0001539754        0.0001707876       -0.0001975465
 Pt         0.0000030323        0.0000464334       -0.0000684578
 Pt        -0.0000942900        0.0000302133       -0.0001109623
      60
 i =        8, E =     -7949.3305648154
 Pt         0.0000564794        0.0000064676        0.0000147976
 Pt         0.0000447802       -0.0000010755       -0.0000386403
 Pt         0.0000894692       -0.0000340422       -0.0000415794
 Pt         0.0000911900        0.0000441283       -0.0000032330
 Pt         0.0000535263        0.0000820422       -0.0000290654
 Pt         0.0000929143        0.0000514975       -0.0000725426
 Pt         0.0001070161       -0.0000072436       -0.0000374511
 Pt         0.0001299832        0.0000007170       -0.0000131364
 Pt         0.0000278913        0.0000288178       -0.0000768291
 Pt         0.0000213932        0.0000673821       -0.0000321412
 Pt        -0.0000062213        0.0000262370       -0.0001435279
 Pt         0.0000064508        0.0000118449       -0.0001051516
 Ni        -0.0000735760       -0.0001218237       -0.0001067129
 Ni         0.0000003400       -0.0001815325       -0.0001779856
 Ni         0.0000492305       -0.0000412096       -0.0001509377
 Ni        -0.0000965851        0.0000489649       -0.0000541883
 Pt         0.0001899105       -0.0000163071        0.0000479072
 Pt         0.0000718002        0.0000703549       -0.0000557183
 Ni        -0.0000003320        0.0000039507       -0.0000195074
 Ni        -0.0002211541        0.0003757857        0.0000000413
 Pt         0.0001840211        0.0001134122        0.0000860119
 Pt        -0.0001567279        0.0000633353       -0.0001033259
 Pt         0.0000921817       -0.0000399135       -0.0000182650
 Pt        -0.0002146384        0.0000375575       -0.0000711084
 Pt         0.0000362744        0.0000635766       -0.0000207724
 Pt        -0.0000258071        0.0001110378       -0.0000864485
 Ni        -0.0000584820       -0.0001722977       -0.0001563589
 Pt         0.0000104725        0.0000756159       -0.0001106570
 Pt        -0.0000145673        0.0000257931       -0.0000342154
 Pt         0.0000134762       -0.0000276102       -0.0000232709
 Ni        -0.0001027366        0.0004054414       -0.0001381933
 Pt        -0.0000257653       -0.0000863551       -0.0000070097
 Ni        -0.0002120314        0.0002324710       -0.0001671504
 Pt         0.0000584295        0.0000256213       -0.0000474820
 Pt         0.0000033711        0.0000727383       -0.0001011485
 Pt        -0.0000368672        0.0000909799       -0.0000849356
 Pt         0.0001740492        0.0000544025       -0.0000156747
 Pt        -0.0000051349        0.0000240899       -0.0000651826
 Pt         0.0001825963        0.0000475387       -0.0000342619
 Pt        -0.0001471933        0.0001141770       -0.0001014251
 Ni         0.0000894317        0.0000121063       -0.0000753147
 Pt        -0.0000467132        0.0000589768       -0.0001015010
 Ni        -0.0000024418       -0.0000074982       -0.0000804635
 Pt        -0.0002104027        0.0000235204       -0.0000997814
 Ni        -0.0000721953        0.0000207397       -0.0001499615
 Ni         0.0000060898        0.0000276503       -0.0000111050
 Ni         0.0000544016        0.0000525114        0.0000362020
 Ni        -0.0000305693       -0.0001568018        0.0000506089
 Pt        -0.0000017515        0.0000354785        0.0000163239
 Pt        -0.0000130614        0.0000556090       -0.0000106127
 Pt        -0.0000266844        0.0000997782       -0.0000342256
 Pt        -0.0000403171        0.0000629788       -0.0000371360
 Pt        -0.0001314091        0.0000365594       -0.0000210717
 Pt        -0.0001794417        0.0000546718       -0.0000241467
 Pt        -0.0000872291        0.0001072354       -0.0000623109
 Pt        -0.0001038778        0.0001040612        0.0000442054
 Pt        -0.0000913469        0.0000237210       -0.0000994233
 Pt        -0.0001022078        0.0001064642       -0.0000896973
 Pt        -0.0000432074        0.0000615763        0.0000055292
 Pt        -0.0000641703        0.0000464926       -0.0000436611
