      60
 i =        1, E =     -7949.3103506849
 Pt        -3.0938950544        5.4136074122        8.0964621625
 Pt         1.5961457717        5.4139249092        8.1153681292
 Pt        -0.7352055815        1.3539639335        8.1619795002
 Pt         3.9549527782        1.3530197542        8.1640498502
 Pt         1.5885269780        2.7060761209        8.1312602036
 Pt         6.2783231800        2.7060193606        8.1263086621
 Pt         6.2724281226       -0.0008683595        8.1492143268
 Pt         1.5841490044       -0.0010959206        8.1356520060
 Pt        -0.7284495361        6.7654636067        8.1812282059
 Pt         3.9621019032        6.7644638075        8.1839597948
 Pt        -0.7233368193        4.0621107694        8.1973868351
 Pt         3.9677702219        4.0614978967        8.1997460304
 Ni         0.0333694747        5.4299548576       10.3784384919
 Ni         4.7274291738        2.6954515547       10.3777384412
 Ni         0.0160000000        0.0150000000       10.3730000000
 Ni         4.7050000000        5.4260000000       10.3920000000
 Pt        -2.3310000000        4.0520000000       10.3920000000
 Pt        -2.3180000000        6.7740000000       10.3940000000
 Ni         0.0080000000        2.6910000000       10.3950000000
 Ni         4.6860000000        0.0040000000       10.4010000000
 Pt         2.3650000000        4.0810000000       10.4020000000
 Pt         2.3960000000        1.3360000000       10.4050000000
 Pt         2.3780000000        6.7430000000       10.4060000000
 Pt         7.0860000000        1.3800000000       10.4080000000
 Pt        -3.9070000000        6.7680000000       12.5310000000
 Pt        -1.5630000000        5.4150000000       12.5310000000
 Ni        -1.5630000000        2.7070000000       12.5310000000
 Pt         0.7810000000        4.0610000000       12.5310000000
 Pt         0.7820000000        1.3540000000       12.5310000000
 Pt         0.7820000000        6.7680000000       12.5310000000
 Ni         3.1260000000        0.0000000000       12.5310000000
 Pt         3.1260000000        2.7070000000       12.5310000000
 Ni         3.1260000000        5.4150000000       12.5310000000
 Pt         5.4700000000        4.0610000000       12.5310000000
 Pt         5.4710000000        1.3540000000       12.5310000000
 Pt         7.8150000000        0.0000000000       12.5310000000
 Pt        -0.8320000000        1.3780000000       14.6550000000
 Pt         3.8770000000        6.7430000000       14.6550000000
 Pt         3.8570000000        1.3360000000       14.6570000000
 Pt         3.8930000000        4.0800000000       14.6600000000
 Ni         6.2490000000        2.6890000000       14.6640000000
 Pt        -0.8060000000        6.7750000000       14.6640000000
 Ni         1.5680000000        0.0050000000       14.6650000000
 Pt        -0.7900000000        4.0510000000       14.6670000000
 Ni         1.5530000000        5.4270000000       14.6680000000
 Ni         6.2380000000        0.0140000000       14.6910000000
 Ni        -3.1570000000        5.4280000000       14.6920000000
 Ni         1.5410000000        2.6790000000       14.6930000000
 Pt         2.2960000000        4.0600000000       16.8370000000
 Pt        -2.3960000000        4.0570000000       16.8390000000
 Pt         2.3023680166        6.7644514014       16.8798695732
 Pt        -2.3845687170        6.7659467768       16.8833543818
 Pt         4.6794199779       -0.0005261138       16.9244496673
 Pt        -0.0081677980       -0.0000052452       16.9124507494
 Pt        -0.0141142549        2.7066313182       16.9335716205
 Pt         4.6755945043        2.7054069238       16.9281989006
 Pt         6.9992211943        1.3532395217       16.9022981982
 Pt         2.3100900414        1.3521383894       16.9050129471
 Pt         4.6679402654        5.4147546437       16.9449997047
 Pt        -0.0194022537        5.4135510824       16.9586868005
      60
 i =        2, E =     -7949.3106829763
 Pt        -3.0996075522        5.4148932103        8.1114457980
 Pt         1.5916145043        5.4146276339        8.1242820029
 Pt        -0.7296236924        1.3537579601        8.1750296992
 Pt         3.9595119558        1.3519775341        8.1785891555
 Pt         1.5896035431        2.7045911385        8.1303183450
 Pt         6.2807310319        2.7033720683        8.1210957951
 Pt         6.2776874490        0.0006130384        8.1391336128
 Pt         1.5914532042        0.0014934080        8.1245867212
 Pt        -0.7285694065        6.7686576096        8.1803629172
 Pt         3.9594540818        6.7680453564        8.1824760664
 Pt        -0.7272261766        4.0598657480        8.1872085900
 Pt         3.9603707381        4.0592703404        8.1894565799
 Ni         0.0316007389        5.4267111644       10.3796685799
 Ni         4.7259758767        2.6921951147       10.3790203841
 Ni         0.0160000000        0.0150000000       10.3730000000
 Ni         4.7050000000        5.4260000000       10.3920000000
 Pt        -2.3310000000        4.0520000000       10.3920000000
 Pt        -2.3180000000        6.7740000000       10.3940000000
 Ni         0.0080000000        2.6910000000       10.3950000000
 Ni         4.6860000000        0.0040000000       10.4010000000
 Pt         2.3650000000        4.0810000000       10.4020000000
 Pt         2.3960000000        1.3360000000       10.4050000000
 Pt         2.3780000000        6.7430000000       10.4060000000
 Pt         7.0860000000        1.3800000000       10.4080000000
 Pt        -3.9070000000        6.7680000000       12.5310000000
 Pt        -1.5630000000        5.4150000000       12.5310000000
 Ni        -1.5630000000        2.7070000000       12.5310000000
 Pt         0.7810000000        4.0610000000       12.5310000000
 Pt         0.7820000000        1.3540000000       12.5310000000
 Pt         0.7820000000        6.7680000000       12.5310000000
 Ni         3.1260000000       -0.0000000000       12.5310000000
 Pt         3.1260000000        2.7070000000       12.5310000000
 Ni         3.1260000000        5.4150000000       12.5310000000
 Pt         5.4700000000        4.0610000000       12.5310000000
 Pt         5.4710000000        1.3540000000       12.5310000000
 Pt         7.8150000000        0.0000000000       12.5310000000
 Pt        -0.8320000000        1.3780000000       14.6550000000
 Pt         3.8770000000        6.7430000000       14.6550000000
 Pt         3.8570000000        1.3360000000       14.6570000000
 Pt         3.8930000000        4.0800000000       14.6600000000
 Ni         6.2490000000        2.6890000000       14.6640000000
 Pt        -0.8060000000        6.7750000000       14.6640000000
 Ni         1.5680000000        0.0050000000       14.6650000000
 Pt        -0.7900000000        4.0510000000       14.6670000000
 Ni         1.5530000000        5.4270000000       14.6680000000
 Ni         6.2380000000        0.0140000000       14.6910000000
 Ni        -3.1570000000        5.4280000000       14.6920000000
 Ni         1.5410000000        2.6790000000       14.6930000000
 Pt         2.2960000000        4.0600000000       16.8370000000
 Pt        -2.3960000000        4.0570000000       16.8390000000
 Pt         2.3036206943        6.7681081825       16.8809914348
 Pt        -2.3852522431        6.7679702174       16.8844156131
 Pt         4.6718438135       -0.0006030260       16.9363698014
 Pt        -0.0144679970       -0.0005586180       16.9235696127
 Pt        -0.0192851823        2.7025429488       16.9381059079
 Pt         4.6716263720        2.7025102965       16.9299385031
 Pt         6.9924956281        1.3518704131       16.8893102463
 Pt         2.3039784297        1.3499253511       16.8910684862
 Pt         4.6695556356        5.4154985810       16.9372275433
 Pt        -0.0172276159        5.4146586884       16.9443136465
      60
 i =        3, E =     -7949.3107030610
 Pt        -3.1008079263        5.4142877675        8.1124382806
 Pt         1.5910262351        5.4144626147        8.1239611033
 Pt        -0.7286557467        1.3539844626        8.1747447478
 Pt         3.9616095476        1.3526962217        8.1786026318
 Pt         1.5897631013        2.7058510447        8.1300700750
 Pt         6.2807913285        2.7052093267        8.1213161124
 Pt         6.2786545337       -0.0000077613        8.1387071935
 Pt         1.5917368616        0.0003509137        8.1254845936
 Pt        -0.7285527302        6.7679273313        8.1803353728
 Pt         3.9600303107        6.7675891445        8.1824582439
 Pt        -0.7281719184        4.0605412757        8.1867585940
 Pt         3.9606510211        4.0602899606        8.1888664585
 Ni         0.0300883207        5.4273774156       10.3791124790
 Ni         4.7253523245        2.6938655214       10.3785506397
 Ni         0.0160000000        0.0150000000       10.3730000000
 Ni         4.7050000000        5.4260000000       10.3920000000
 Pt        -2.3310000000        4.0520000000       10.3920000000
 Pt        -2.3180000000        6.7740000000       10.3940000000
 Ni         0.0080000000        2.6910000000       10.3950000000
 Ni         4.6860000000        0.0040000000       10.4010000000
 Pt         2.3650000000        4.0810000000       10.4020000000
 Pt         2.3960000000        1.3360000000       10.4050000000
 Pt         2.3780000000        6.7430000000       10.4060000000
 Pt         7.0860000000        1.3800000000       10.4080000000
 Pt        -3.9070000000        6.7680000000       12.5310000000
 Pt        -1.5630000000        5.4150000000       12.5310000000
 Ni        -1.5630000000        2.7070000000       12.5310000000
 Pt         0.7810000000        4.0610000000       12.5310000000
 Pt         0.7820000000        1.3540000000       12.5310000000
 Pt         0.7820000000        6.7680000000       12.5310000000
 Ni         3.1260000000       -0.0000000000       12.5310000000
 Pt         3.1260000000        2.7070000000       12.5310000000
 Ni         3.1260000000        5.4150000000       12.5310000000
 Pt         5.4700000000        4.0610000000       12.5310000000
 Pt         5.4710000000        1.3540000000       12.5310000000
 Pt         7.8150000000        0.0000000000       12.5310000000
 Pt        -0.8320000000        1.3780000000       14.6550000000
 Pt         3.8770000000        6.7430000000       14.6550000000
 Pt         3.8570000000        1.3360000000       14.6570000000
 Pt         3.8930000000        4.0800000000       14.6600000000
 Ni         6.2490000000        2.6890000000       14.6640000000
 Pt        -0.8060000000        6.7750000000       14.6640000000
 Ni         1.5680000000        0.0050000000       14.6650000000
 Pt        -0.7900000000        4.0510000000       14.6670000000
 Ni         1.5530000000        5.4270000000       14.6680000000
 Ni         6.2380000000        0.0140000000       14.6910000000
 Ni        -3.1570000000        5.4280000000       14.6920000000
 Ni         1.5410000000        2.6790000000       14.6930000000
 Pt         2.2960000000        4.0600000000       16.8370000000
 Pt        -2.3960000000        4.0570000000       16.8390000000
 Pt         2.3013625655        6.7674090830       16.8809603228
 Pt        -2.3872779563        6.7672067252       16.8842355032
 Pt         4.6697632498       -0.0010415956       16.9359768556
 Pt        -0.0169893850       -0.0009323914       16.9245617668
 Pt        -0.0209137440        2.7038008821       16.9375713552
 Pt         4.6697075647        2.7034415237       16.9298669532
 Pt         6.9896189880        1.3521049449       16.8893820278
 Pt         2.3007190459        1.3502260307       16.8910420740
 Pt         4.6681486208        5.4147865314       16.9377843586
 Pt        -0.0177830476        5.4140193249       16.9436428516
      60
 i =        4, E =     -7949.3107132960
 Pt        -3.1008235145        5.4145715037        8.1123714243
 Pt         1.5909503004        5.4145897919        8.1233828088
 Pt        -0.7281221110        1.3542797395        8.1742318925
 Pt         3.9623185916        1.3529871926        8.1785400361
 Pt         1.5901278079        2.7062381640        8.1300382040
 Pt         6.2810557034        2.7056457180        8.1215668467
 Pt         6.2792310110        0.0000852547        8.1387082848
 Pt         1.5919885799        0.0005622441        8.1266760045
 Pt        -0.7281172092        6.7681601585        8.1804263697
 Pt         3.9602363517        6.7678957849        8.1825167449
 Pt        -0.7279854492        4.0608172692        8.1863970530
 Pt         3.9607370807        4.0605265942        8.1886759387
 Ni         0.0289182983        5.4269243493       10.3788702853
 Ni         4.7250625013        2.6940148869       10.3784321461
 Ni         0.0160000000        0.0150000000       10.3730000000
 Ni         4.7050000000        5.4260000000       10.3920000000
 Pt        -2.3310000000        4.0520000000       10.3920000000
 Pt        -2.3180000000        6.7740000000       10.3940000000
 Ni         0.0080000000        2.6910000000       10.3950000000
 Ni         4.6860000000        0.0040000000       10.4010000000
 Pt         2.3650000000        4.0810000000       10.4020000000
 Pt         2.3960000000        1.3360000000       10.4050000000
 Pt         2.3780000000        6.7430000000       10.4060000000
 Pt         7.0860000000        1.3800000000       10.4080000000
 Pt        -3.9070000000        6.7680000000       12.5310000000
 Pt        -1.5630000000        5.4150000000       12.5310000000
 Ni        -1.5630000000        2.7070000000       12.5310000000
 Pt         0.7810000000        4.0610000000       12.5310000000
 Pt         0.7820000000        1.3540000000       12.5310000000
 Pt         0.7820000000        6.7680000000       12.5310000000
 Ni         3.1260000000       -0.0000000000       12.5310000000
 Pt         3.1260000000        2.7070000000       12.5310000000
 Ni         3.1260000000        5.4150000000       12.5310000000
 Pt         5.4700000000        4.0610000000       12.5310000000
 Pt         5.4710000000        1.3540000000       12.5310000000
 Pt         7.8150000000        0.0000000000       12.5310000000
 Pt        -0.8320000000        1.3780000000       14.6550000000
 Pt         3.8770000000        6.7430000000       14.6550000000
 Pt         3.8570000000        1.3360000000       14.6570000000
 Pt         3.8930000000        4.0800000000       14.6600000000
 Ni         6.2490000000        2.6890000000       14.6640000000
 Pt        -0.8060000000        6.7750000000       14.6640000000
 Ni         1.5680000000        0.0050000000       14.6650000000
 Pt        -0.7900000000        4.0510000000       14.6670000000
 Ni         1.5530000000        5.4270000000       14.6680000000
 Ni         6.2380000000        0.0140000000       14.6910000000
 Ni        -3.1570000000        5.4280000000       14.6920000000
 Ni         1.5410000000        2.6790000000       14.6930000000
 Pt         2.2960000000        4.0600000000       16.8370000000
 Pt        -2.3960000000        4.0570000000       16.8390000000
 Pt         2.2984961046        6.7673360843       16.8805421226
 Pt        -2.3903692360        6.7671049927       16.8836562067
 Pt         4.6667751437       -0.0011530548       16.9353918430
 Pt        -0.0202770449       -0.0011525755       16.9251753405
 Pt        -0.0228950792        2.7040205092       16.9373635874
 Pt         4.6675112347        2.7036587484       16.9300877274
 Pt         6.9866028566        1.3520738477       16.8894163256
 Pt         2.2975063657        1.3499912068       16.8909715825
 Pt         4.6661364840        5.4145348464       16.9388569343
 Pt        -0.0196425608        5.4139116236       16.9439800326
      60
 i =        5, E =     -7949.3107164181
 Pt        -3.1002447582        5.4149086352        8.1120256478
 Pt         1.5915318592        5.4149251099        8.1232588352
 Pt        -0.7281676896        1.3546298555        8.1741198194
 Pt         3.9622901173        1.3531874621        8.1785268072
 Pt         1.5904472886        2.7063848137        8.1299913560
 Pt         6.2813715434        2.7056847951        8.1216077945
 Pt         6.2794184045        0.0004938003        8.1388094583
 Pt         1.5921446298        0.0010470767        8.1269842646
 Pt        -0.7277776955        6.7685901538        8.1805558368
 Pt         3.9604071919        6.7682289605        8.1825995155
 Pt        -0.7275859333        4.0610010640        8.1863482211
 Pt         3.9610538353        4.0607371915        8.1888284473
 Ni         0.0282571056        5.4264340033       10.3790128224
 Ni         4.7250603475        2.6937570704       10.3785124406
 Ni         0.0160000000        0.0150000000       10.3730000000
 Ni         4.7050000000        5.4260000000       10.3920000000
 Pt        -2.3310000000        4.0520000000       10.3920000000
 Pt        -2.3180000000        6.7740000000       10.3940000000
 Ni         0.0080000000        2.6910000000       10.3950000000
 Ni         4.6860000000        0.0040000000       10.4010000000
 Pt         2.3650000000        4.0810000000       10.4020000000
 Pt         2.3960000000        1.3360000000       10.4050000000
 Pt         2.3780000000        6.7430000000       10.4060000000
 Pt         7.0860000000        1.3800000000       10.4080000000
 Pt        -3.9070000000        6.7680000000       12.5310000000
 Pt        -1.5630000000        5.4150000000       12.5310000000
 Ni        -1.5630000000        2.7070000000       12.5310000000
 Pt         0.7810000000        4.0610000000       12.5310000000
 Pt         0.7820000000        1.3540000000       12.5310000000
 Pt         0.7820000000        6.7680000000       12.5310000000
 Ni         3.1260000000       -0.0000000000       12.5310000000
 Pt         3.1260000000        2.7070000000       12.5310000000
 Ni         3.1260000000        5.4150000000       12.5310000000
 Pt         5.4700000000        4.0610000000       12.5310000000
 Pt         5.4710000000        1.3540000000       12.5310000000
 Pt         7.8150000000        0.0000000000       12.5310000000
 Pt        -0.8320000000        1.3780000000       14.6550000000
 Pt         3.8770000000        6.7430000000       14.6550000000
 Pt         3.8570000000        1.3360000000       14.6570000000
 Pt         3.8930000000        4.0800000000       14.6600000000
 Ni         6.2490000000        2.6890000000       14.6640000000
 Pt        -0.8060000000        6.7750000000       14.6640000000
 Ni         1.5680000000        0.0050000000       14.6650000000
 Pt        -0.7900000000        4.0510000000       14.6670000000
 Ni         1.5530000000        5.4270000000       14.6680000000
 Ni         6.2380000000        0.0140000000       14.6910000000
 Ni        -3.1570000000        5.4280000000       14.6920000000
 Ni         1.5410000000        2.6790000000       14.6930000000
 Pt         2.2960000000        4.0600000000       16.8370000000
 Pt        -2.3960000000        4.0570000000       16.8390000000
 Pt         2.2961519979        6.7674618005       16.8799127825
 Pt        -2.3928611916        6.7672671197       16.8829582658
 Pt         4.6641318107       -0.0010743090       16.9355047258
 Pt        -0.0230034605       -0.0011331063       16.9255765735
 Pt        -0.0243871667        2.7038548948       16.9376880710
 Pt         4.6660174692        2.7035960945       16.9305434693
 Pt         6.9844569517        1.3520361789       16.8889585884
 Pt         2.2953828427        1.3498411325       16.8904672255
 Pt         4.6644213983        5.4143776965       16.9394872616
 Pt        -0.0215017019        5.4137636410       16.9446901231
      60
 i =        6, E =     -7949.3107167652
 Pt        -3.0999147928        5.4151128165        8.1118111208
 Pt         1.5917368797        5.4150847597        8.1233751654
 Pt        -0.7281233992        1.3547429406        8.1741870914
 Pt         3.9621252107        1.3532894278        8.1784911986
 Pt         1.5905209365        2.7064075870        8.1299928909
 Pt         6.2814576554        2.7056545084        8.1215104473
 Pt         6.2793577443        0.0006771420        8.1388806885
 Pt         1.5922022238        0.0012764047        8.1267226498
 Pt        -0.7276603641        6.7687770922        8.1805964024
 Pt         3.9605546085        6.7683932864        8.1826358301
 Pt        -0.7272985844        4.0611212987        8.1864949274
 Pt         3.9612302219        4.0608161879        8.1890425953
 Ni         0.0282811686        5.4263741743       10.3791040337
 Ni         4.7251998533        2.6936441616       10.3785636097
 Ni         0.0160000000        0.0150000000       10.3730000000
 Ni         4.7050000000        5.4260000000       10.3920000000
 Pt        -2.3310000000        4.0520000000       10.3920000000
 Pt        -2.3180000000        6.7740000000       10.3940000000
 Ni         0.0080000000        2.6910000000       10.3950000000
 Ni         4.6860000000        0.0040000000       10.4010000000
 Pt         2.3650000000        4.0810000000       10.4020000000
 Pt         2.3960000000        1.3360000000       10.4050000000
 Pt         2.3780000000        6.7430000000       10.4060000000
 Pt         7.0860000000        1.3800000000       10.4080000000
 Pt        -3.9070000000        6.7680000000       12.5310000000
 Pt        -1.5630000000        5.4150000000       12.5310000000
 Ni        -1.5630000000        2.7070000000       12.5310000000
 Pt         0.7810000000        4.0610000000       12.5310000000
 Pt         0.7820000000        1.3540000000       12.5310000000
 Pt         0.7820000000        6.7680000000       12.5310000000
 Ni         3.1260000000       -0.0000000000       12.5310000000
 Pt         3.1260000000        2.7070000000       12.5310000000
 Ni         3.1260000000        5.4150000000       12.5310000000
 Pt         5.4700000000        4.0610000000       12.5310000000
 Pt         5.4710000000        1.3540000000       12.5310000000
 Pt         7.8150000000        0.0000000000       12.5310000000
 Pt        -0.8320000000        1.3780000000       14.6550000000
 Pt         3.8770000000        6.7430000000       14.6550000000
 Pt         3.8570000000        1.3360000000       14.6570000000
 Pt         3.8930000000        4.0800000000       14.6600000000
 Ni         6.2490000000        2.6890000000       14.6640000000
 Pt        -0.8060000000        6.7750000000       14.6640000000
 Ni         1.5680000000        0.0050000000       14.6650000000
 Pt        -0.7900000000        4.0510000000       14.6670000000
 Ni         1.5530000000        5.4270000000       14.6680000000
 Ni         6.2380000000        0.0140000000       14.6910000000
 Ni        -3.1570000000        5.4280000000       14.6920000000
 Ni         1.5410000000        2.6790000000       14.6930000000
 Pt         2.2960000000        4.0600000000       16.8370000000
 Pt        -2.3960000000        4.0570000000       16.8390000000
 Pt         2.2956811669        6.7674679141       16.8796576776
 Pt        -2.3932611132        6.7673250451       16.8827500237
 Pt         4.6636593847       -0.0010699178       16.9358379379
 Pt        -0.0233995627       -0.0010952710       16.9256031281
 Pt        -0.0245766919        2.7038095075       16.9379519282
 Pt         4.6658601195        2.7035614746       16.9307443685
 Pt         6.9841367286        1.3519766022       16.8887130060
 Pt         2.2951132198        1.3498148341       16.8902620888
 Pt         4.6641753555        5.4144295757       16.9394449265
 Pt        -0.0218803619        5.4137709151       16.9450132974
      60
 i =        7, E =     -7949.3096579053
 Pt        -3.0999147928        5.4151128165        8.1118111208
 Pt         1.5917368797        5.4150847597        8.1233751654
 Pt        -0.7281233992        1.3547429406        8.1741870914
 Pt         3.9621252107        1.3532894278        8.1784911986
 Pt         1.5905209365        2.7064075870        8.1299928909
 Pt         6.2814576554        2.7056545084        8.1215104473
 Pt         6.2793577443        0.0006771420        8.1388806885
 Pt         1.5922022238        0.0012764047        8.1267226498
 Pt        -0.7276603641        6.7687770922        8.1805964024
 Pt         3.9605546085        6.7683932864        8.1826358301
 Pt        -0.7272985844        4.0611212987        8.1864949274
 Pt         3.9612302219        4.0608161879        8.1890425953
 Ni         0.0282811686        5.4263741743       10.3791040337
 Ni         4.7251998533        2.6936441616       10.3785636097
 Ni         0.0160000000        0.0150000000       10.3730000000
 Ni         4.7050000000        5.4260000000       10.3920000000
 Pt        -2.3310000000        4.0520000000       10.3920000000
 Pt        -2.3180000000        6.7740000000       10.3940000000
 Ni         0.0080000000        2.6910000000       10.3950000000
 Ni         4.6860000000        0.0040000000       10.4010000000
 Pt         2.3650000000        4.0810000000       10.4020000000
 Pt         2.3960000000        1.3360000000       10.4050000000
 Pt         2.3780000000        6.7430000000       10.4060000000
 Pt         7.0860000000        1.3800000000       10.4080000000
 Pt        -3.9070000000        6.7680000000       12.5310000000
 Pt        -1.5630000000        5.4150000000       12.5310000000
 Ni        -1.5630000000        2.7070000000       12.5310000000
 Pt         0.7810000000        4.0610000000       12.5310000000
 Pt         0.7820000000        1.3540000000       12.5310000000
 Pt         0.7820000000        6.7680000000       12.5310000000
 Ni         3.1260000000       -0.0000000000       12.5310000000
 Pt         3.1260000000        2.7070000000       12.5310000000
 Ni         3.1260000000        5.4150000000       12.5310000000
 Pt         5.4700000000        4.0610000000       12.5310000000
 Pt         5.4710000000        1.3540000000       12.5310000000
 Pt         7.8150000000        0.0000000000       12.5310000000
 Pt        -0.8320000000        1.3780000000       14.6550000000
 Pt         3.8770000000        6.7430000000       14.6550000000
 Pt         3.8570000000        1.3360000000       14.6570000000
 Pt         3.8930000000        4.0800000000       14.6600000000
 Ni         6.2490000000        2.6890000000       14.6640000000
 Pt        -0.8060000000        6.7750000000       14.6640000000
 Ni         1.5680000000        0.0050000000       14.6650000000
 Pt        -0.7900000000        4.0510000000       14.6670000000
 Ni         1.5530000000        5.4270000000       14.6680000000
 Ni         6.2380000000        0.0140000000       14.6910000000
 Ni        -3.1570000000        5.4280000000       14.6920000000
 Ni         1.5410000000        2.6790000000       14.6930000000
 Pt         2.2960000000        4.0600000000       16.8370000000
 Pt        -2.3960000000        4.0570000000       16.8390000000
 Pt         2.2956811669        6.7674679141       16.8796576776
 Pt        -2.3932611132        6.7673250451       16.8827500237
 Pt         4.6636593847       -0.0010699178       16.9358379379
 Pt        -0.0233995627       -0.0010952710       16.9256031281
 Pt        -0.0245766919        2.7038095075       16.9379519282
 Pt         4.6658601195        2.7035614746       16.9307443685
 Pt         6.9841367286        1.3519766022       16.8887130060
 Pt         2.2951132198        1.3498148341       16.8902620888
 Pt         4.6641753555        5.4144295757       16.9394449265
 Pt        -0.0218803619        5.4137709151       16.9450132974
