      60
 i =        1, E =     -7949.3259977937
 Pt        -0.0006280339        0.0002295776        0.0018361102
 Pt        -0.0004210199        0.0000914879        0.0009832820
 Pt         0.0005908122       -0.0000419904        0.0013844612
 Pt         0.0004533863       -0.0001919696        0.0016045729
 Pt         0.0002235244       -0.0003132950       -0.0000497602
 Pt         0.0005539963       -0.0005978117       -0.0006584688
 Pt         0.0008425247        0.0002916029       -0.0010794509
 Pt         0.0012369757        0.0005441241       -0.0010432903
 Pt        -0.0002502919        0.0007651557       -0.0003840773
 Pt        -0.0007332435        0.0006609352       -0.0003202340
 Pt        -0.0007657206       -0.0005925721       -0.0014317982
 Pt        -0.0015287341       -0.0003383824       -0.0014969667
 Ni        -0.0001778399       -0.0005838192        0.0002838807
 Ni        -0.0006155326       -0.0010752607        0.0002470668
 Ni         0.0000000000        0.0000000000        0.0000000000
 Ni         0.0000000000        0.0000000000        0.0000000000
 Pt         0.0000000000        0.0000000000        0.0000000000
 Pt         0.0000000000        0.0000000000        0.0000000000
 Ni         0.0000000000        0.0000000000        0.0000000000
 Ni         0.0000000000        0.0000000000        0.0000000000
 Pt         0.0000000000        0.0000000000        0.0000000000
 Pt         0.0000000000        0.0000000000        0.0000000000
 Pt         0.0000000000        0.0000000000        0.0000000000
 Pt         0.0000000000        0.0000000000        0.0000000000
 Pt         0.0000000000        0.0000000000        0.0000000000
 Pt         0.0000000000        0.0000000000        0.0000000000
 Ni         0.0000000000        0.0000000000        0.0000000000
 Pt         0.0000000000        0.0000000000        0.0000000000
 Pt         0.0000000000        0.0000000000        0.0000000000
 Pt         0.0000000000        0.0000000000        0.0000000000
 Ni         0.0000000000        0.0000000000        0.0000000000
 Pt         0.0000000000        0.0000000000        0.0000000000
 Ni         0.0000000000        0.0000000000        0.0000000000
 Pt         0.0000000000        0.0000000000        0.0000000000
 Pt         0.0000000000        0.0000000000        0.0000000000
 Pt         0.0000000000        0.0000000000        0.0000000000
 Pt         0.0000000000        0.0000000000        0.0000000000
 Pt         0.0000000000        0.0000000000        0.0000000000
 Pt         0.0000000000        0.0000000000        0.0000000000
 Pt         0.0000000000        0.0000000000        0.0000000000
 Ni         0.0000000000        0.0000000000        0.0000000000
 Pt         0.0000000000        0.0000000000        0.0000000000
 Ni         0.0000000000        0.0000000000        0.0000000000
 Pt         0.0000000000        0.0000000000        0.0000000000
 Ni         0.0000000000        0.0000000000        0.0000000000
 Ni         0.0000000000        0.0000000000        0.0000000000
 Ni         0.0000000000        0.0000000000        0.0000000000
 Ni         0.0000000000        0.0000000000        0.0000000000
 Pt         0.0000000000        0.0000000000        0.0000000000
 Pt         0.0000000000        0.0000000000        0.0000000000
 Pt         0.0005058233        0.0007025785        0.0002362841
 Pt         0.0001385180        0.0004601093        0.0002469476
 Pt        -0.0012783291        0.0000964043        0.0011892653
 Pt        -0.0010482835       -0.0000276730        0.0012484326
 Pt        -0.0008148965       -0.0007832146        0.0003842974
 Pt        -0.0005643839       -0.0005960542        0.0001005061
 Pt        -0.0007410069       -0.0003207803       -0.0014104157
 Pt        -0.0006603960       -0.0004467071       -0.0015328125
 Pt         0.0001372364        0.0002096475       -0.0009537018
 Pt         0.0001687830        0.0002483919       -0.0018442926
      60
 i =        2, E =     -7949.3262921050
 Pt        -0.0003400812       -0.0001753425        0.0000750778
 Pt        -0.0002163095       -0.0000557831       -0.0001516829
 Pt         0.0001148343        0.0000283996       -0.0001771173
 Pt         0.0003605554        0.0001795591       -0.0001739384
 Pt        -0.0001038466        0.0003578262       -0.0000397290
 Pt        -0.0001628352        0.0005008366        0.0000744218
 Pt         0.0000215378       -0.0001856534        0.0000070553
 Pt        -0.0001772525       -0.0003321922        0.0002485655
 Pt         0.0000045642       -0.0002575458        0.0000042247
 Pt         0.0001517674       -0.0001329022       -0.0000081567
 Pt        -0.0001712394        0.0002053462       -0.0000384620
 Pt         0.0001855049        0.0002053526       -0.0000379985
 Ni        -0.0004273747        0.0001742049       -0.0001015665
 Ni        -0.0001126665        0.0004582000       -0.0000889349
 Ni         0.0000000000        0.0000000000        0.0000000000
 Ni         0.0000000000        0.0000000000        0.0000000000
 Pt         0.0000000000        0.0000000000        0.0000000000
 Pt         0.0000000000        0.0000000000        0.0000000000
 Ni         0.0000000000        0.0000000000        0.0000000000
 Ni         0.0000000000        0.0000000000        0.0000000000
 Pt         0.0000000000        0.0000000000        0.0000000000
 Pt         0.0000000000        0.0000000000        0.0000000000
 Pt         0.0000000000        0.0000000000        0.0000000000
 Pt         0.0000000000        0.0000000000        0.0000000000
 Pt         0.0000000000        0.0000000000        0.0000000000
 Pt         0.0000000000        0.0000000000        0.0000000000
 Ni         0.0000000000        0.0000000000        0.0000000000
 Pt         0.0000000000        0.0000000000        0.0000000000
 Pt         0.0000000000        0.0000000000        0.0000000000
 Pt         0.0000000000        0.0000000000        0.0000000000
 Ni         0.0000000000        0.0000000000        0.0000000000
 Pt         0.0000000000        0.0000000000        0.0000000000
 Ni         0.0000000000        0.0000000000        0.0000000000
 Pt         0.0000000000        0.0000000000        0.0000000000
 Pt         0.0000000000        0.0000000000        0.0000000000
 Pt         0.0000000000        0.0000000000        0.0000000000
 Pt         0.0000000000        0.0000000000        0.0000000000
 Pt         0.0000000000        0.0000000000        0.0000000000
 Pt         0.0000000000        0.0000000000        0.0000000000
 Pt         0.0000000000        0.0000000000        0.0000000000
 Ni         0.0000000000        0.0000000000        0.0000000000
 Pt         0.0000000000        0.0000000000        0.0000000000
 Ni         0.0000000000        0.0000000000        0.0000000000
 Pt         0.0000000000        0.0000000000        0.0000000000
 Ni         0.0000000000        0.0000000000        0.0000000000
 Ni         0.0000000000        0.0000000000        0.0000000000
 Ni         0.0000000000        0.0000000000        0.0000000000
 Ni         0.0000000000        0.0000000000        0.0000000000
 Pt         0.0000000000        0.0000000000        0.0000000000
 Pt         0.0000000000        0.0000000000        0.0000000000
 Pt        -0.0004596959       -0.0001901135       -0.0000049252
 Pt        -0.0003923340       -0.0001955404       -0.0000413395
 Pt        -0.0002148768       -0.0001333516       -0.0001413203
 Pt        -0.0003370991       -0.0001008365        0.0001156475
 Pt        -0.0001963407        0.0003498421       -0.0001340533
 Pt        -0.0002863964        0.0002917349       -0.0000389643
 Pt        -0.0004940835        0.0000762705        0.0001317108
 Pt        -0.0005792273        0.0001296520        0.0001150929
 Pt        -0.0002237249       -0.0001904461        0.0001699346
 Pt        -0.0000391155       -0.0001705498       -0.0000266394
      60
 i =        3, E =     -7949.3263097562
 Pt         0.0000102081        0.0000742671       -0.0000846487
 Pt        -0.0000276220        0.0000247168       -0.0000783474
 Pt        -0.0000524577        0.0000227005       -0.0000829658
 Pt        -0.0000925960        0.0000031791       -0.0000462822
 Pt        -0.0000180810       -0.0000205709        0.0000090539
 Pt        -0.0000246479       -0.0000524030        0.0000294826
 Pt        -0.0000451596        0.0000481559        0.0000479695
 Pt        -0.0000481849        0.0001007280        0.0001403613
 Pt        -0.0000092260        0.0000800160       -0.0000002277
 Pt        -0.0000724892        0.0000762282        0.0000042413
 Pt         0.0000189386        0.0000080391       -0.0000143036
 Pt        -0.0000808984       -0.0000247509       -0.0000005171
 Ni        -0.0001530601       -0.0001584302       -0.0000340786
 Ni        -0.0000473266       -0.0000775159       -0.0000077639
 Ni         0.0000000000        0.0000000000        0.0000000000
 Ni         0.0000000000        0.0000000000        0.0000000000
 Pt         0.0000000000        0.0000000000        0.0000000000
 Pt         0.0000000000        0.0000000000        0.0000000000
 Ni         0.0000000000        0.0000000000        0.0000000000
 Ni         0.0000000000        0.0000000000        0.0000000000
 Pt         0.0000000000        0.0000000000        0.0000000000
 Pt         0.0000000000        0.0000000000        0.0000000000
 Pt         0.0000000000        0.0000000000        0.0000000000
 Pt         0.0000000000        0.0000000000        0.0000000000
 Pt         0.0000000000        0.0000000000        0.0000000000
 Pt         0.0000000000        0.0000000000        0.0000000000
 Ni         0.0000000000        0.0000000000        0.0000000000
 Pt         0.0000000000        0.0000000000        0.0000000000
 Pt         0.0000000000        0.0000000000        0.0000000000
 Pt         0.0000000000        0.0000000000        0.0000000000
 Ni         0.0000000000        0.0000000000        0.0000000000
 Pt         0.0000000000        0.0000000000        0.0000000000
 Ni         0.0000000000        0.0000000000        0.0000000000
 Pt         0.0000000000        0.0000000000        0.0000000000
 Pt         0.0000000000        0.0000000000        0.0000000000
 Pt         0.0000000000        0.0000000000        0.0000000000
 Pt         0.0000000000        0.0000000000        0.0000000000
 Pt         0.0000000000        0.0000000000        0.0000000000
 Pt         0.0000000000        0.0000000000        0.0000000000
 Pt         0.0000000000        0.0000000000        0.0000000000
 Ni         0.0000000000        0.0000000000        0.0000000000
 Pt         0.0000000000        0.0000000000        0.0000000000
 Ni         0.0000000000        0.0000000000        0.0000000000
 Pt         0.0000000000        0.0000000000        0.0000000000
 Ni         0.0000000000        0.0000000000        0.0000000000
 Ni         0.0000000000        0.0000000000        0.0000000000
 Ni         0.0000000000        0.0000000000        0.0000000000
 Ni         0.0000000000        0.0000000000        0.0000000000
 Pt         0.0000000000        0.0000000000        0.0000000000
 Pt         0.0000000000        0.0000000000        0.0000000000
 Pt        -0.0002438704        0.0000351358       -0.0000568622
 Pt        -0.0002913522        0.0000334400       -0.0000741286
 Pt        -0.0002607651        0.0000130361       -0.0000924699
 Pt        -0.0002781792       -0.0000083835        0.0000066069
 Pt        -0.0001750034       -0.0000408851       -0.0000170297
 Pt        -0.0001848176       -0.0000266344        0.0000184619
 Pt        -0.0002193069       -0.0000248105        0.0000198364
 Pt        -0.0002287627       -0.0000547719        0.0000102583
 Pt        -0.0001922572        0.0000094912        0.0001242011
 Pt        -0.0002163150        0.0000218877        0.0000893642
      60
 i =        4, E =     -7949.3263178381
 Pt         0.0000680485        0.0000620936       -0.0000548675
 Pt         0.0000550534        0.0000452709        0.0000279647
 Pt        -0.0001129976        0.0000294310        0.0000051083
 Pt        -0.0001534339       -0.0000125131        0.0000038681
 Pt        -0.0000164650       -0.0000572423        0.0000146949
 Pt        -0.0000057268       -0.0000973120        0.0000075867
 Pt        -0.0000651980        0.0000790069        0.0000389607
 Pt        -0.0000238849        0.0001122682       -0.0000012647
 Pt        -0.0000461768        0.0000897418        0.0000000780
 Pt        -0.0000877899        0.0000468285        0.0000047020
 Pt        -0.0000033797       -0.0000163254        0.0000138713
 Pt        -0.0000758802       -0.0000083475        0.0000262818
 Ni        -0.0000576369       -0.0001077872        0.0000202748
 Ni         0.0000113054       -0.0001115258        0.0000101990
 Ni         0.0000000000        0.0000000000        0.0000000000
 Ni         0.0000000000        0.0000000000        0.0000000000
 Pt         0.0000000000        0.0000000000        0.0000000000
 Pt         0.0000000000        0.0000000000        0.0000000000
 Ni         0.0000000000        0.0000000000        0.0000000000
 Ni         0.0000000000        0.0000000000        0.0000000000
 Pt         0.0000000000        0.0000000000        0.0000000000
 Pt         0.0000000000        0.0000000000        0.0000000000
 Pt         0.0000000000        0.0000000000        0.0000000000
 Pt         0.0000000000        0.0000000000        0.0000000000
 Pt         0.0000000000        0.0000000000        0.0000000000
 Pt         0.0000000000        0.0000000000        0.0000000000
 Ni         0.0000000000        0.0000000000        0.0000000000
 Pt         0.0000000000        0.0000000000        0.0000000000
 Pt         0.0000000000        0.0000000000        0.0000000000
 Pt         0.0000000000        0.0000000000        0.0000000000
 Ni         0.0000000000        0.0000000000        0.0000000000
 Pt         0.0000000000        0.0000000000        0.0000000000
 Ni         0.0000000000        0.0000000000        0.0000000000
 Pt         0.0000000000        0.0000000000        0.0000000000
 Pt         0.0000000000        0.0000000000        0.0000000000
 Pt         0.0000000000        0.0000000000        0.0000000000
 Pt         0.0000000000        0.0000000000        0.0000000000
 Pt         0.0000000000        0.0000000000        0.0000000000
 Pt         0.0000000000        0.0000000000        0.0000000000
 Pt         0.0000000000        0.0000000000        0.0000000000
 Ni         0.0000000000        0.0000000000        0.0000000000
 Pt         0.0000000000        0.0000000000        0.0000000000
 Ni         0.0000000000        0.0000000000        0.0000000000
 Pt         0.0000000000        0.0000000000        0.0000000000
 Ni         0.0000000000        0.0000000000        0.0000000000
 Ni         0.0000000000        0.0000000000        0.0000000000
 Ni         0.0000000000        0.0000000000        0.0000000000
 Ni         0.0000000000        0.0000000000        0.0000000000
 Pt         0.0000000000        0.0000000000        0.0000000000
 Pt         0.0000000000        0.0000000000        0.0000000000
 Pt        -0.0000955583        0.0000473139       -0.0000571666
 Pt        -0.0001213789        0.0000539360       -0.0000562115
 Pt        -0.0001814162        0.0000424376        0.0000259816
 Pt        -0.0001642769        0.0000302476       -0.0000039658
 Pt        -0.0000869163       -0.0000812884        0.0000587734
 Pt        -0.0000672026       -0.0000626289        0.0000527537
 Pt        -0.0000602432       -0.0000202507       -0.0000558402
 Pt        -0.0000418630       -0.0000372157       -0.0000552414
 Pt        -0.0001139534        0.0000170719        0.0000299826
 Pt        -0.0001647588        0.0000096644        0.0000937396
      60
 i =        5, E =     -7949.3263214856
 Pt         0.0000068971        0.0000386690       -0.0000162284
 Pt        -0.0000213988        0.0000241543        0.0000478726
 Pt        -0.0000379230        0.0000118050        0.0000189588
 Pt        -0.0000851937        0.0000042034        0.0000028567
 Pt        -0.0000423700       -0.0000199212        0.0000175816
 Pt        -0.0000364102       -0.0000302052       -0.0000047020
 Pt        -0.0000645804        0.0000334016        0.0000221879
 Pt        -0.0000333637        0.0000469403       -0.0000485012
 Pt        -0.0000353958        0.0000357516       -0.0000015533
 Pt        -0.0000301894        0.0000255364       -0.0000004239
 Pt         0.0000010269        0.0000087860        0.0000226098
 Pt        -0.0000321960        0.0000046943        0.0000301684
 Ni        -0.0000164463       -0.0000509812        0.0000233756
 Ni         0.0000347014       -0.0000347737        0.0000134896
 Ni         0.0000000000        0.0000000000        0.0000000000
 Ni         0.0000000000        0.0000000000        0.0000000000
 Pt         0.0000000000        0.0000000000        0.0000000000
 Pt         0.0000000000        0.0000000000        0.0000000000
 Ni         0.0000000000        0.0000000000        0.0000000000
 Ni         0.0000000000        0.0000000000        0.0000000000
 Pt         0.0000000000        0.0000000000        0.0000000000
 Pt         0.0000000000        0.0000000000        0.0000000000
 Pt         0.0000000000        0.0000000000        0.0000000000
 Pt         0.0000000000        0.0000000000        0.0000000000
 Pt         0.0000000000        0.0000000000        0.0000000000
 Pt         0.0000000000        0.0000000000        0.0000000000
 Ni         0.0000000000        0.0000000000        0.0000000000
 Pt         0.0000000000        0.0000000000        0.0000000000
 Pt         0.0000000000        0.0000000000        0.0000000000
 Pt         0.0000000000        0.0000000000        0.0000000000
 Ni         0.0000000000        0.0000000000        0.0000000000
 Pt         0.0000000000        0.0000000000        0.0000000000
 Ni         0.0000000000        0.0000000000        0.0000000000
 Pt         0.0000000000        0.0000000000        0.0000000000
 Pt         0.0000000000        0.0000000000        0.0000000000
 Pt         0.0000000000        0.0000000000        0.0000000000
 Pt         0.0000000000        0.0000000000        0.0000000000
 Pt         0.0000000000        0.0000000000        0.0000000000
 Pt         0.0000000000        0.0000000000        0.0000000000
 Pt         0.0000000000        0.0000000000        0.0000000000
 Ni         0.0000000000        0.0000000000        0.0000000000
 Pt         0.0000000000        0.0000000000        0.0000000000
 Ni         0.0000000000        0.0000000000        0.0000000000
 Pt         0.0000000000        0.0000000000        0.0000000000
 Ni         0.0000000000        0.0000000000        0.0000000000
 Ni         0.0000000000        0.0000000000        0.0000000000
 Ni         0.0000000000        0.0000000000        0.0000000000
 Ni         0.0000000000        0.0000000000        0.0000000000
 Pt         0.0000000000        0.0000000000        0.0000000000
 Pt         0.0000000000        0.0000000000        0.0000000000
 Pt        -0.0000167562        0.0000068224       -0.0000270809
 Pt        -0.0000020261        0.0000157166       -0.0000149512
 Pt        -0.0000244535        0.0000052513        0.0000599425
 Pt        -0.0000043044        0.0000113013       -0.0000076762
 Pt        -0.0000007654       -0.0000204269        0.0000462875
 Pt         0.0000103293       -0.0000192226        0.0000298375
 Pt         0.0000042825       -0.0000117896       -0.0000374251
 Pt         0.0000180830       -0.0000088673       -0.0000282532
 Pt        -0.0000022231        0.0000179258       -0.0000229547
 Pt        -0.0000304717        0.0000117537        0.0000438573
      60
 i =        6, E =     -7949.3263219568
 Pt        -0.0000258476        0.0000086417        0.0000033161
 Pt        -0.0000252678        0.0000154808        0.0000290029
 Pt        -0.0000350964        0.0000100481        0.0000066691
 Pt        -0.0000330911        0.0000126019       -0.0000044930
 Pt        -0.0000293288        0.0000099806        0.0000108440
 Pt        -0.0000287864        0.0000097404        0.0000046864
 Pt        -0.0000345942        0.0000147995        0.0000128738
 Pt        -0.0000239992        0.0000099393       -0.0000207401
 Pt        -0.0000343128        0.0000151893       -0.0000036240
 Pt        -0.0000293244        0.0000099664       -0.0000014668
 Pt        -0.0000313204        0.0000100390        0.0000079081
 Pt        -0.0000202279        0.0000165888        0.0000116882
 Ni        -0.0000282295       -0.0000054895        0.0000053631
 Ni         0.0000154760       -0.0000017963        0.0000014997
 Ni         0.0000000000        0.0000000000        0.0000000000
 Ni         0.0000000000        0.0000000000        0.0000000000
 Pt         0.0000000000        0.0000000000        0.0000000000
 Pt         0.0000000000        0.0000000000        0.0000000000
 Ni         0.0000000000        0.0000000000        0.0000000000
 Ni         0.0000000000        0.0000000000        0.0000000000
 Pt         0.0000000000        0.0000000000        0.0000000000
 Pt         0.0000000000        0.0000000000        0.0000000000
 Pt         0.0000000000        0.0000000000        0.0000000000
 Pt         0.0000000000        0.0000000000        0.0000000000
 Pt         0.0000000000        0.0000000000        0.0000000000
 Pt         0.0000000000        0.0000000000        0.0000000000
 Ni         0.0000000000        0.0000000000        0.0000000000
 Pt         0.0000000000        0.0000000000        0.0000000000
 Pt         0.0000000000        0.0000000000        0.0000000000
 Pt         0.0000000000        0.0000000000        0.0000000000
 Ni         0.0000000000        0.0000000000        0.0000000000
 Pt         0.0000000000        0.0000000000        0.0000000000
 Ni         0.0000000000        0.0000000000        0.0000000000
 Pt         0.0000000000        0.0000000000        0.0000000000
 Pt         0.0000000000        0.0000000000        0.0000000000
 Pt         0.0000000000        0.0000000000        0.0000000000
 Pt         0.0000000000        0.0000000000        0.0000000000
 Pt         0.0000000000        0.0000000000        0.0000000000
 Pt         0.0000000000        0.0000000000        0.0000000000
 Pt         0.0000000000        0.0000000000        0.0000000000
 Ni         0.0000000000        0.0000000000        0.0000000000
 Pt         0.0000000000        0.0000000000        0.0000000000
 Ni         0.0000000000        0.0000000000        0.0000000000
 Pt         0.0000000000        0.0000000000        0.0000000000
 Ni         0.0000000000        0.0000000000        0.0000000000
 Ni         0.0000000000        0.0000000000        0.0000000000
 Ni         0.0000000000        0.0000000000        0.0000000000
 Ni         0.0000000000        0.0000000000        0.0000000000
 Pt         0.0000000000        0.0000000000        0.0000000000
 Pt         0.0000000000        0.0000000000        0.0000000000
 Pt         0.0000120597       -0.0000001479       -0.0000053811
 Pt         0.0000190175        0.0000029529        0.0000033416
 Pt         0.0000076519        0.0000031953        0.0000238104
 Pt         0.0000159649        0.0000050891       -0.0000061660
 Pt         0.0000051376       -0.0000013433        0.0000110304
 Pt         0.0000091606       -0.0000027358        0.0000062176
 Pt         0.0000131011        0.0000013149       -0.0000095689
 Pt         0.0000186693        0.0000044855       -0.0000039308
 Pt         0.0000111327        0.0000006759       -0.0000159103
 Pt         0.0000037394       -0.0000023784        0.0000107000
      60
 i =        7, E =     -7949.3267547690
 Pt        -0.0000258476        0.0000086417        0.0000033161
 Pt        -0.0000252678        0.0000154808        0.0000290029
 Pt        -0.0000350964        0.0000100481        0.0000066691
 Pt        -0.0000330911        0.0000126019       -0.0000044930
 Pt        -0.0000293288        0.0000099806        0.0000108440
 Pt        -0.0000287864        0.0000097404        0.0000046864
 Pt        -0.0000345942        0.0000147995        0.0000128738
 Pt        -0.0000239992        0.0000099393       -0.0000207401
 Pt        -0.0000343128        0.0000151893       -0.0000036240
 Pt        -0.0000293244        0.0000099664       -0.0000014668
 Pt        -0.0000313204        0.0000100390        0.0000079081
 Pt        -0.0000202279        0.0000165888        0.0000116882
 Ni        -0.0000282295       -0.0000054895        0.0000053631
 Ni         0.0000154760       -0.0000017963        0.0000014997
 Ni         0.0000000000        0.0000000000        0.0000000000
 Ni         0.0000000000        0.0000000000        0.0000000000
 Pt         0.0000000000        0.0000000000        0.0000000000
 Pt         0.0000000000        0.0000000000        0.0000000000
 Ni         0.0000000000        0.0000000000        0.0000000000
 Ni         0.0000000000        0.0000000000        0.0000000000
 Pt         0.0000000000        0.0000000000        0.0000000000
 Pt         0.0000000000        0.0000000000        0.0000000000
 Pt         0.0000000000        0.0000000000        0.0000000000
 Pt         0.0000000000        0.0000000000        0.0000000000
 Pt         0.0000000000        0.0000000000        0.0000000000
 Pt         0.0000000000        0.0000000000        0.0000000000
 Ni         0.0000000000        0.0000000000        0.0000000000
 Pt         0.0000000000        0.0000000000        0.0000000000
 Pt         0.0000000000        0.0000000000        0.0000000000
 Pt         0.0000000000        0.0000000000        0.0000000000
 Ni         0.0000000000        0.0000000000        0.0000000000
 Pt         0.0000000000        0.0000000000        0.0000000000
 Ni         0.0000000000        0.0000000000        0.0000000000
 Pt         0.0000000000        0.0000000000        0.0000000000
 Pt         0.0000000000        0.0000000000        0.0000000000
 Pt         0.0000000000        0.0000000000        0.0000000000
 Pt         0.0000000000        0.0000000000        0.0000000000
 Pt         0.0000000000        0.0000000000        0.0000000000
 Pt         0.0000000000        0.0000000000        0.0000000000
 Pt         0.0000000000        0.0000000000        0.0000000000
 Ni         0.0000000000        0.0000000000        0.0000000000
 Pt         0.0000000000        0.0000000000        0.0000000000
 Ni         0.0000000000        0.0000000000        0.0000000000
 Pt         0.0000000000        0.0000000000        0.0000000000
 Ni         0.0000000000        0.0000000000        0.0000000000
 Ni         0.0000000000        0.0000000000        0.0000000000
 Ni         0.0000000000        0.0000000000        0.0000000000
 Ni         0.0000000000        0.0000000000        0.0000000000
 Pt         0.0000000000        0.0000000000        0.0000000000
 Pt         0.0000000000        0.0000000000        0.0000000000
 Pt         0.0000120597       -0.0000001479       -0.0000053811
 Pt         0.0000190175        0.0000029529        0.0000033416
 Pt         0.0000076519        0.0000031953        0.0000238104
 Pt         0.0000159649        0.0000050891       -0.0000061660
 Pt         0.0000051376       -0.0000013433        0.0000110304
 Pt         0.0000091606       -0.0000027358        0.0000062176
 Pt         0.0000131011        0.0000013149       -0.0000095689
 Pt         0.0000186693        0.0000044855       -0.0000039308
 Pt         0.0000111327        0.0000006759       -0.0000159103
 Pt         0.0000037394       -0.0000023784        0.0000107000
