      60
 i =        1, E =     -7949.3259976516
 Pt        -3.0942211348        5.4136148603        8.0986613680
 Pt         1.5959719977        5.4139258339        8.1170944397
 Pt        -0.7351492121        1.3540777029        8.1609206300
 Pt         3.9549261631        1.3528506594        8.1627837819
 Pt         1.5881383700        2.7061199778        8.1320549284
 Pt         6.2781984457        2.7060362467        8.1268241809
 Pt         6.2719907271       -0.0009150834        8.1488828881
 Pt         1.5838506731       -0.0011067526        8.1351971048
 Pt        -0.7283397300        6.7654468565        8.1782357855
 Pt         3.9622260317        6.7643331101        8.1810746504
 Pt        -0.7231978894        4.0621650209        8.1930163408
 Pt         3.9678544227        4.0616500397        8.1953675359
 Ni         0.0329019606        5.4299849331       10.3762312521
 Ni         4.7269505099        2.6952424313       10.3754027641
 Ni         0.0160000000        0.0150000000       10.3730000000
 Ni         4.7050000000        5.4260000000       10.3920000000
 Pt        -2.3310000000        4.0520000000       10.3920000000
 Pt        -2.3180000000        6.7740000000       10.3940000000
 Ni         0.0080000000        2.6910000000       10.3950000000
 Ni         4.6860000000        0.0040000000       10.4010000000
 Pt         2.3650000000        4.0810000000       10.4020000000
 Pt         2.3960000000        1.3360000000       10.4050000000
 Pt         2.3780000000        6.7430000000       10.4060000000
 Pt         7.0860000000        1.3800000000       10.4080000000
 Pt        -3.9070000000        6.7680000000       12.5310000000
 Pt        -1.5630000000        5.4150000000       12.5310000000
 Ni        -1.5630000000        2.7070000000       12.5310000000
 Pt         0.7810000000        4.0610000000       12.5310000000
 Pt         0.7820000000        1.3540000000       12.5310000000
 Pt         0.7820000000        6.7680000000       12.5310000000
 Ni         3.1260000000        0.0000000000       12.5310000000
 Pt         3.1260000000        2.7070000000       12.5310000000
 Ni         3.1260000000        5.4150000000       12.5310000000
 Pt         5.4700000000        4.0610000000       12.5310000000
 Pt         5.4710000000        1.3540000000       12.5310000000
 Pt         7.8150000000        0.0000000000       12.5310000000
 Pt        -0.8320000000        1.3780000000       14.6550000000
 Pt         3.8770000000        6.7430000000       14.6550000000
 Pt         3.8570000000        1.3360000000       14.6570000000
 Pt         3.8930000000        4.0800000000       14.6600000000
 Ni         6.2490000000        2.6890000000       14.6640000000
 Pt        -0.8060000000        6.7750000000       14.6640000000
 Ni         1.5680000000        0.0050000000       14.6650000000
 Pt        -0.7900000000        4.0510000000       14.6670000000
 Ni         1.5530000000        5.4270000000       14.6680000000
 Ni         6.2380000000        0.0140000000       14.6910000000
 Ni        -3.1570000000        5.4280000000       14.6920000000
 Ni         1.5410000000        2.6790000000       14.6930000000
 Pt         2.2960000000        4.0600000000       16.8370000000
 Pt        -2.3960000000        4.0570000000       16.8390000000
 Pt         2.3022473285        6.7642820717       16.8826811828
 Pt        -2.3847445697        6.7657677539       16.8862272460
 Pt         4.6796956137       -0.0005217007       16.9248836246
 Pt        -0.0077403370       -0.0000393645       16.9128014291
 Pt        -0.0137418012        2.7066559578       16.9329548553
 Pt         4.6760285437        2.7054966218       16.9274148372
 Pt         6.9991729540        1.3533179521       16.9033210797
 Pt         2.3100320068        1.3521094171       16.9060416653
 Pt         4.6683290920        5.4147308772       16.9431924807
 Pt        -0.0189813519        5.4135074912       16.9565551778
      60
 i =        2, E =     -7949.3262915587
 Pt        -3.1001201339        5.4148947279        8.1129092472
 Pt         1.5912459280        5.4146428759        8.1251486908
 Pt        -0.7299494303        1.3537325121        8.1715610386
 Pt         3.9591228204        1.3518779920        8.1745100785
 Pt         1.5889227926        2.7045986859        8.1315040240
 Pt         6.2802371766        2.7034003666        8.1221349782
 Pt         6.2770280607        0.0005772453        8.1400689564
 Pt         1.5908486668        0.0014711701        8.1258130726
 Pt        -0.7290360418        6.7687336350        8.1758977371
 Pt         3.9590364400        6.7679667887        8.1785245497
 Pt        -0.7278334684        4.0597607616        8.1822298028
 Pt         3.9597772989        4.0594801748        8.1844803205
 Ni         0.0308638063        5.4269250551       10.3766853328
 Ni         4.7248248152        2.6920311517       10.3760054273
 Ni         0.0160000000        0.0150000000       10.3730000000
 Ni         4.7050000000        5.4260000000       10.3920000000
 Pt        -2.3310000000        4.0520000000       10.3920000000
 Pt        -2.3180000000        6.7740000000       10.3940000000
 Ni         0.0080000000        2.6910000000       10.3950000000
 Ni         4.6860000000        0.0040000000       10.4010000000
 Pt         2.3650000000        4.0810000000       10.4020000000
 Pt         2.3960000000        1.3360000000       10.4050000000
 Pt         2.3780000000        6.7430000000       10.4060000000
 Pt         7.0860000000        1.3800000000       10.4080000000
 Pt        -3.9070000000        6.7680000000       12.5310000000
 Pt        -1.5630000000        5.4150000000       12.5310000000
 Ni        -1.5630000000        2.7070000000       12.5310000000
 Pt         0.7810000000        4.0610000000       12.5310000000
 Pt         0.7820000000        1.3540000000       12.5310000000
 Pt         0.7820000000        6.7680000000       12.5310000000
 Ni         3.1260000000        0.0000000000       12.5310000000
 Pt         3.1260000000        2.7070000000       12.5310000000
 Ni         3.1260000000        5.4150000000       12.5310000000
 Pt         5.4700000000        4.0610000000       12.5310000000
 Pt         5.4710000000        1.3540000000       12.5310000000
 Pt         7.8150000000       -0.0000000000       12.5310000000
 Pt        -0.8320000000        1.3780000000       14.6550000000
 Pt         3.8770000000        6.7430000000       14.6550000000
 Pt         3.8570000000        1.3360000000       14.6570000000
 Pt         3.8930000000        4.0800000000       14.6600000000
 Ni         6.2490000000        2.6890000000       14.6640000000
 Pt        -0.8060000000        6.7750000000       14.6640000000
 Ni         1.5680000000        0.0050000000       14.6650000000
 Pt        -0.7900000000        4.0510000000       14.6670000000
 Ni         1.5530000000        5.4270000000       14.6680000000
 Ni         6.2380000000        0.0140000000       14.6910000000
 Ni        -3.1570000000        5.4280000000       14.6920000000
 Ni         1.5410000000        2.6790000000       14.6930000000
 Pt         2.2960000000        4.0600000000       16.8370000000
 Pt        -2.3960000000        4.0570000000       16.8390000000
 Pt         2.3041356434        6.7680749833       16.8846567543
 Pt        -2.3847667765        6.7679550766       16.8881720907
 Pt         4.6724347198       -0.0005771514       16.9352081587
 Pt        -0.0137248969       -0.0005884461       16.9227915718
 Pt        -0.0186489634        2.7024577781       16.9363592591
 Pt         4.6723704787        2.7024717571       16.9283449404
 Pt         6.9929545180        1.3518077546       16.8925263511
 Pt         2.3044001408        1.3499034141       16.8943507600
 Pt         4.6701085384        5.4155722968       16.9355800367
 Pt        -0.0165936487        5.4147505605       16.9424793371
      60
 i =        3, E =     -7949.3263095827
 Pt        -3.1017518583        5.4142945370        8.1138267169
 Pt         1.5902040642        5.4144474111        8.1247155308
 Pt        -0.7293777474        1.3539703734        8.1710812934
 Pt         3.9607526073        1.3525903695        8.1741569396
 Pt         1.5886962039        2.7059025872        8.1312802770
 Pt         6.2799436553        2.7052237455        8.1223150996
 Pt         6.2775846519       -0.0000445697        8.1397551979
 Pt         1.5907772767        0.0003573627        8.1267523499
 Pt        -0.7293724084        6.7679895500        8.1756512584
 Pt         3.9592190191        6.7675396273        8.1783928917
 Pt        -0.7290603268        4.0604276469        8.1815688558
 Pt         3.9596805893        4.0604480081        8.1837249369
 Ni         0.0291817559        5.4273598747       10.3764815813
 Ni         4.7241923616        2.6936305886       10.3757893751
 Ni         0.0160000000        0.0150000000       10.3730000000
 Ni         4.7050000000        5.4260000000       10.3920000000
 Pt        -2.3310000000        4.0520000000       10.3920000000
 Pt        -2.3180000000        6.7740000000       10.3940000000
 Ni         0.0080000000        2.6910000000       10.3950000000
 Ni         4.6860000000        0.0040000000       10.4010000000
 Pt         2.3650000000        4.0810000000       10.4020000000
 Pt         2.3960000000        1.3360000000       10.4050000000
 Pt         2.3780000000        6.7430000000       10.4060000000
 Pt         7.0860000000        1.3800000000       10.4080000000
 Pt        -3.9070000000        6.7680000000       12.5310000000
 Pt        -1.5630000000        5.4150000000       12.5310000000
 Ni        -1.5630000000        2.7070000000       12.5310000000
 Pt         0.7810000000        4.0610000000       12.5310000000
 Pt         0.7820000000        1.3540000000       12.5310000000
 Pt         0.7820000000        6.7680000000       12.5310000000
 Ni         3.1260000000        0.0000000000       12.5310000000
 Pt         3.1260000000        2.7070000000       12.5310000000
 Ni         3.1260000000        5.4150000000       12.5310000000
 Pt         5.4700000000        4.0610000000       12.5310000000
 Pt         5.4710000000        1.3540000000       12.5310000000
 Pt         7.8150000000        0.0000000000       12.5310000000
 Pt        -0.8320000000        1.3780000000       14.6550000000
 Pt         3.8770000000        6.7430000000       14.6550000000
 Pt         3.8570000000        1.3360000000       14.6570000000
 Pt         3.8930000000        4.0800000000       14.6600000000
 Ni         6.2490000000        2.6890000000       14.6640000000
 Pt        -0.8060000000        6.7750000000       14.6640000000
 Ni         1.5680000000        0.0050000000       14.6650000000
 Pt        -0.7900000000        4.0510000000       14.6670000000
 Ni         1.5530000000        5.4270000000       14.6680000000
 Ni         6.2380000000        0.0140000000       14.6910000000
 Ni        -3.1570000000        5.4280000000       14.6920000000
 Ni         1.5410000000        2.6790000000       14.6930000000
 Pt         2.2960000000        4.0600000000       16.8370000000
 Pt        -2.3960000000        4.0570000000       16.8390000000
 Pt         2.3021622688        6.7673842476       16.8846767907
 Pt        -2.3865552091        6.7671739879       16.8880428209
 Pt         4.6706345030       -0.0010255543       16.9348368824
 Pt        -0.0159898792       -0.0009778971       16.9237891781
 Pt        -0.0201157021        2.7037011459       16.9357789069
 Pt         4.6706444255        2.7034132074       16.9281609626
 Pt         6.9903588826        1.3520562313       16.8927399361
 Pt         2.3014356072        1.3502418859       16.8944672437
 Pt         4.6689247492        5.4148643963       16.9361551557
 Pt        -0.0169071102        5.4141048297       16.9417603772
      60
 i =        4, E =     -7949.3263178683
 Pt        -3.1023230741        5.4145644091        8.1136960688
 Pt         1.5895851462        5.4145703031        8.1241538015
 Pt        -0.7295117573        1.3542545493        8.1704740727
 Pt         3.9607317025        1.3528325881        8.1738366083
 Pt         1.5884511557        2.7062675367        8.1312187493
 Pt         6.2796223609        2.7056148044        8.1224956102
 Pt         6.2774608675        0.0000509143        8.1398085198
 Pt         1.5904128136        0.0005694052        8.1277984655
 Pt        -0.7295658104        6.7682301375        8.1755629788
 Pt         3.9588370494        6.7678388787        8.1783339042
 Pt        -0.7294434499        4.0606752302        8.1809912606
 Pt         3.9592186726        4.0606623037        8.1833255445
 Ni         0.0278107453        5.4267251457       10.3762684064
 Ni         4.7237633600        2.6937844236       10.3756775234
 Ni         0.0160000000        0.0150000000       10.3730000000
 Ni         4.7050000000        5.4260000000       10.3920000000
 Pt        -2.3310000000        4.0520000000       10.3920000000
 Pt        -2.3180000000        6.7740000000       10.3940000000
 Ni         0.0080000000        2.6910000000       10.3950000000
 Ni         4.6860000000        0.0040000000       10.4010000000
 Pt         2.3650000000        4.0810000000       10.4020000000
 Pt         2.3960000000        1.3360000000       10.4050000000
 Pt         2.3780000000        6.7430000000       10.4060000000
 Pt         7.0860000000        1.3800000000       10.4080000000
 Pt        -3.9070000000        6.7680000000       12.5310000000
 Pt        -1.5630000000        5.4150000000       12.5310000000
 Ni        -1.5630000000        2.7070000000       12.5310000000
 Pt         0.7810000000        4.0610000000       12.5310000000
 Pt         0.7820000000        1.3540000000       12.5310000000
 Pt         0.7820000000        6.7680000000       12.5310000000
 Ni         3.1260000000        0.0000000000       12.5310000000
 Pt         3.1260000000        2.7070000000       12.5310000000
 Ni         3.1260000000        5.4150000000       12.5310000000
 Pt         5.4700000000        4.0610000000       12.5310000000
 Pt         5.4710000000        1.3540000000       12.5310000000
 Pt         7.8150000000        0.0000000000       12.5310000000
 Pt        -0.8320000000        1.3780000000       14.6550000000
 Pt         3.8770000000        6.7430000000       14.6550000000
 Pt         3.8570000000        1.3360000000       14.6570000000
 Pt         3.8930000000        4.0800000000       14.6600000000
 Ni         6.2490000000        2.6890000000       14.6640000000
 Pt        -0.8060000000        6.7750000000       14.6640000000
 Ni         1.5680000000        0.0050000000       14.6650000000
 Pt        -0.7900000000        4.0510000000       14.6670000000
 Ni         1.5530000000        5.4270000000       14.6680000000
 Ni         6.2380000000        0.0140000000       14.6910000000
 Ni        -3.1570000000        5.4280000000       14.6920000000
 Ni         1.5410000000        2.6790000000       14.6930000000
 Pt         2.2960000000        4.0600000000       16.8370000000
 Pt        -2.3960000000        4.0570000000       16.8390000000
 Pt         2.2997755904        6.7673244483       16.8843372744
 Pt        -2.3891696059        6.7670853285       16.8875033758
 Pt         4.6681814563       -0.0011270243       16.9342700842
 Pt        -0.0186806121       -0.0011739438       16.9242970292
 Pt        -0.0217467068        2.7038693495       16.9355359627
 Pt         4.6688120278        2.7035898477       16.9282589265
 Pt         6.9878846245        1.3520290931       16.8928204180
 Pt         2.2987698934        1.3500205842       16.8944194713
 Pt         4.6672535717        5.4146637273       16.9370902056
 Pt        -0.0184575421        5.4140263046       16.9419786545
      60
 i =        5, E =     -7949.3263212616
 Pt        -3.1025329795        5.4149238901        8.1135637786
 Pt         1.5893724692        5.4149226490        8.1242698337
 Pt        -0.7302551960        1.3546166920        8.1702673314
 Pt         3.9599995797        1.3530729275        8.1736792697
 Pt         1.5880010820        2.7064525470        8.1313319067
 Pt         6.2791650118        2.7056898149        8.1227085951
 Pt         6.2768802780        0.0004656212        8.1401008669
 Pt         1.5897831282        0.0010684485        8.1283064090
 Pt        -0.7299599261        6.7686774462        8.1755357833
 Pt         3.9582824212        6.7681958261        8.1783188840
 Pt        -0.7298174678        4.0608715731        8.1806671632
 Pt         3.9587740417        4.0609212460        8.1832418843
 Ni         0.0265446463        5.4260357163       10.3762382096
 Ni         4.7235906026        2.6935921363       10.3755980487
 Ni         0.0160000000        0.0150000000       10.3730000000
 Ni         4.7050000000        5.4260000000       10.3920000000
 Pt        -2.3310000000        4.0520000000       10.3920000000
 Pt        -2.3180000000        6.7740000000       10.3940000000
 Ni         0.0080000000        2.6910000000       10.3950000000
 Ni         4.6860000000        0.0040000000       10.4010000000
 Pt         2.3650000000        4.0810000000       10.4020000000
 Pt         2.3960000000        1.3360000000       10.4050000000
 Pt         2.3780000000        6.7430000000       10.4060000000
 Pt         7.0860000000        1.3800000000       10.4080000000
 Pt        -3.9070000000        6.7680000000       12.5310000000
 Pt        -1.5630000000        5.4150000000       12.5310000000
 Ni        -1.5630000000        2.7070000000       12.5310000000
 Pt         0.7810000000        4.0610000000       12.5310000000
 Pt         0.7820000000        1.3540000000       12.5310000000
 Pt         0.7820000000        6.7680000000       12.5310000000
 Ni         3.1260000000        0.0000000000       12.5310000000
 Pt         3.1260000000        2.7070000000       12.5310000000
 Ni         3.1260000000        5.4150000000       12.5310000000
 Pt         5.4700000000        4.0610000000       12.5310000000
 Pt         5.4710000000        1.3540000000       12.5310000000
 Pt         7.8150000000        0.0000000000       12.5310000000
 Pt        -0.8320000000        1.3780000000       14.6550000000
 Pt         3.8770000000        6.7430000000       14.6550000000
 Pt         3.8570000000        1.3360000000       14.6570000000
 Pt         3.8930000000        4.0800000000       14.6600000000
 Ni         6.2490000000        2.6890000000       14.6640000000
 Pt        -0.8060000000        6.7750000000       14.6640000000
 Ni         1.5680000000        0.0050000000       14.6650000000
 Pt        -0.7900000000        4.0510000000       14.6670000000
 Ni         1.5530000000        5.4270000000       14.6680000000
 Ni         6.2380000000        0.0140000000       14.6910000000
 Ni        -3.1570000000        5.4280000000       14.6920000000
 Ni         1.5410000000        2.6790000000       14.6930000000
 Pt         2.2960000000        4.0600000000       16.8370000000
 Pt        -2.3960000000        4.0570000000       16.8390000000
 Pt         2.2974769015        6.7674298041       16.8838048356
 Pt        -2.3916155374        6.7672256318       16.8868652423
 Pt         4.6656318386       -0.0010581614       16.9344172889
 Pt        -0.0213585027       -0.0011651930       16.9247723626
 Pt        -0.0232226621        2.7037241254       16.9359244562
 Pt         4.6673318119        2.7035309810       16.9287595752
 Pt         6.9857672600        1.3519852494       16.8924411920
 Pt         2.2966649666        1.3498630095       16.8939681347
 Pt         4.6655265121        5.4144908325       16.9378094293
 Pt        -0.0202796935        5.4138757607       16.9426905246
