      60
 i =        1, E =     -7949.3259976119
 Pt        -0.0006266361        0.0002288647        0.0018350470
 Pt        -0.0004215195        0.0000920236        0.0009828425
 Pt         0.0005896817       -0.0000412571        0.0013821558
 Pt         0.0004538032       -0.0001924300        0.0016059843
 Pt         0.0002250502       -0.0003127334       -0.0000505051
 Pt         0.0005532571       -0.0005984727       -0.0006585396
 Pt         0.0008407098        0.0002917353       -0.0010778311
 Pt         0.0012396728        0.0005442234       -0.0010436710
 Pt        -0.0002499958        0.0007657988       -0.0003830085
 Pt        -0.0007342491        0.0006602481       -0.0003226735
 Pt        -0.0007662783       -0.0005915148       -0.0014324438
 Pt        -0.0015291111       -0.0003396667       -0.0014977072
 Ni        -0.0001782877       -0.0005837208        0.0002852109
 Ni        -0.0006156870       -0.0010753872        0.0002482293
 Ni         0.0000000000        0.0000000000        0.0000000000
 Ni         0.0000000000        0.0000000000        0.0000000000
 Pt         0.0000000000        0.0000000000        0.0000000000
 Pt         0.0000000000        0.0000000000        0.0000000000
 Ni         0.0000000000        0.0000000000        0.0000000000
 Ni         0.0000000000        0.0000000000        0.0000000000
 Pt         0.0000000000        0.0000000000        0.0000000000
 Pt         0.0000000000        0.0000000000        0.0000000000
 Pt         0.0000000000        0.0000000000        0.0000000000
 Pt         0.0000000000        0.0000000000        0.0000000000
 Pt         0.0000000000        0.0000000000        0.0000000000
 Pt         0.0000000000        0.0000000000        0.0000000000
 Ni         0.0000000000        0.0000000000        0.0000000000
 Pt         0.0000000000        0.0000000000        0.0000000000
 Pt         0.0000000000        0.0000000000        0.0000000000
 Pt         0.0000000000        0.0000000000        0.0000000000
 Ni         0.0000000000        0.0000000000        0.0000000000
 Pt         0.0000000000        0.0000000000        0.0000000000
 Ni         0.0000000000        0.0000000000        0.0000000000
 Pt         0.0000000000        0.0000000000        0.0000000000
 Pt         0.0000000000        0.0000000000        0.0000000000
 Pt         0.0000000000        0.0000000000        0.0000000000
 Pt         0.0000000000        0.0000000000        0.0000000000
 Pt         0.0000000000        0.0000000000        0.0000000000
 Pt         0.0000000000        0.0000000000        0.0000000000
 Pt         0.0000000000        0.0000000000        0.0000000000
 Ni         0.0000000000        0.0000000000        0.0000000000
 Pt         0.0000000000        0.0000000000        0.0000000000
 Ni         0.0000000000        0.0000000000        0.0000000000
 Pt         0.0000000000        0.0000000000        0.0000000000
 Ni         0.0000000000        0.0000000000        0.0000000000
 Ni         0.0000000000        0.0000000000        0.0000000000
 Ni         0.0000000000        0.0000000000        0.0000000000
 Ni         0.0000000000        0.0000000000        0.0000000000
 Pt         0.0000000000        0.0000000000        0.0000000000
 Pt         0.0000000000        0.0000000000        0.0000000000
 Pt         0.0005072405        0.0007021957        0.0002376774
 Pt         0.0001376840        0.0004613858        0.0002436885
 Pt        -0.0012814531        0.0000965803        0.0011890874
 Pt        -0.0010452403       -0.0000275843        0.0012452207
 Pt        -0.0008134582       -0.0007846587        0.0003826018
 Pt        -0.0005656060       -0.0005956787        0.0001000559
 Pt        -0.0007396188       -0.0003201952       -0.0014093219
 Pt        -0.0006612728       -0.0004479242       -0.0015364472
 Pt         0.0001387464        0.0002109257       -0.0009552113
 Pt         0.0001674309        0.0002479654       -0.0018445221
      60
 i =        2, E =     -7949.3262920467
 Pt        -0.0003424270       -0.0001740999        0.0000754766
 Pt        -0.0002146751       -0.0000565292       -0.0001513470
 Pt         0.0001165148        0.0000268935       -0.0001745207
 Pt         0.0003594194        0.0001804439       -0.0001747107
 Pt        -0.0001060528        0.0003569520       -0.0000398262
 Pt        -0.0001612624        0.0005019393        0.0000740596
 Pt         0.0000248407       -0.0001860652        0.0000058530
 Pt        -0.0001817188       -0.0003324888        0.0002490456
 Pt         0.0000035716       -0.0002586278        0.0000037840
 Pt         0.0001531883       -0.0001318569       -0.0000052569
 Pt        -0.0001708316        0.0002034486       -0.0000378920
 Pt         0.0001856617        0.0002078875       -0.0000371812
 Ni        -0.0004269204        0.0001737518       -0.0001025645
 Ni        -0.0001124775        0.0004583040       -0.0000895909
 Ni         0.0000000000        0.0000000000        0.0000000000
 Ni         0.0000000000        0.0000000000        0.0000000000
 Pt         0.0000000000        0.0000000000        0.0000000000
 Pt         0.0000000000        0.0000000000        0.0000000000
 Ni         0.0000000000        0.0000000000        0.0000000000
 Ni         0.0000000000        0.0000000000        0.0000000000
 Pt         0.0000000000        0.0000000000        0.0000000000
 Pt         0.0000000000        0.0000000000        0.0000000000
 Pt         0.0000000000        0.0000000000        0.0000000000
 Pt         0.0000000000        0.0000000000        0.0000000000
 Pt         0.0000000000        0.0000000000        0.0000000000
 Pt         0.0000000000        0.0000000000        0.0000000000
 Ni         0.0000000000        0.0000000000        0.0000000000
 Pt         0.0000000000        0.0000000000        0.0000000000
 Pt         0.0000000000        0.0000000000        0.0000000000
 Pt         0.0000000000        0.0000000000        0.0000000000
 Ni         0.0000000000        0.0000000000        0.0000000000
 Pt         0.0000000000        0.0000000000        0.0000000000
 Ni         0.0000000000        0.0000000000        0.0000000000
 Pt         0.0000000000        0.0000000000        0.0000000000
 Pt         0.0000000000        0.0000000000        0.0000000000
 Pt         0.0000000000        0.0000000000        0.0000000000
 Pt         0.0000000000        0.0000000000        0.0000000000
 Pt         0.0000000000        0.0000000000        0.0000000000
 Pt         0.0000000000        0.0000000000        0.0000000000
 Pt         0.0000000000        0.0000000000        0.0000000000
 Ni         0.0000000000        0.0000000000        0.0000000000
 Pt         0.0000000000        0.0000000000        0.0000000000
 Ni         0.0000000000        0.0000000000        0.0000000000
 Pt         0.0000000000        0.0000000000        0.0000000000
 Ni         0.0000000000        0.0000000000        0.0000000000
 Ni         0.0000000000        0.0000000000        0.0000000000
 Ni         0.0000000000        0.0000000000        0.0000000000
 Ni         0.0000000000        0.0000000000        0.0000000000
 Pt         0.0000000000        0.0000000000        0.0000000000
 Pt         0.0000000000        0.0000000000        0.0000000000
 Pt        -0.0004621545       -0.0001890494       -0.0000074359
 Pt        -0.0003908326       -0.0001973040       -0.0000395018
 Pt        -0.0002088473       -0.0001337072       -0.0001427429
 Pt        -0.0003415857       -0.0001012798        0.0001164702
 Pt        -0.0001983988        0.0003520023       -0.0001334750
 Pt        -0.0002835205        0.0002909633       -0.0000397258
 Pt        -0.0004967263        0.0000746926        0.0001297602
 Pt        -0.0005775637        0.0001312116        0.0001176939
 Pt        -0.0002259368       -0.0001921085        0.0001699961
 Pt        -0.0000360063       -0.0001693151       -0.0000276570
      60
 i =        3, E =     -7949.3263089909
 Pt         0.0000131306        0.0000731524       -0.0000760538
 Pt        -0.0000335187        0.0000250398       -0.0000683301
 Pt        -0.0000525657        0.0000252262       -0.0000802856
 Pt        -0.0000898307        0.0000012380       -0.0000415672
 Pt        -0.0000195077       -0.0000186690        0.0000190257
 Pt        -0.0000262975       -0.0000539146        0.0000358677
 Pt        -0.0000506227        0.0000476225        0.0000572314
 Pt        -0.0000453356        0.0001016376        0.0001446088
 Pt        -0.0000054152        0.0000800858        0.0000049015
 Pt        -0.0000738280        0.0000760711        0.0000032384
 Pt         0.0000214667        0.0000098835       -0.0000103085
 Pt        -0.0000808502       -0.0000271565       -0.0000009007
 Ni        -0.0001537001       -0.0001580657       -0.0000442280
 Ni        -0.0000474551       -0.0000771175       -0.0000154394
 Ni         0.0000000000        0.0000000000        0.0000000000
 Ni         0.0000000000        0.0000000000        0.0000000000
 Pt         0.0000000000        0.0000000000        0.0000000000
 Pt         0.0000000000        0.0000000000        0.0000000000
 Ni         0.0000000000        0.0000000000        0.0000000000
 Ni         0.0000000000        0.0000000000        0.0000000000
 Pt         0.0000000000        0.0000000000        0.0000000000
 Pt         0.0000000000        0.0000000000        0.0000000000
 Pt         0.0000000000        0.0000000000        0.0000000000
 Pt         0.0000000000        0.0000000000        0.0000000000
 Pt         0.0000000000        0.0000000000        0.0000000000
 Pt         0.0000000000        0.0000000000        0.0000000000
 Ni         0.0000000000        0.0000000000        0.0000000000
 Pt         0.0000000000        0.0000000000        0.0000000000
 Pt         0.0000000000        0.0000000000        0.0000000000
 Pt         0.0000000000        0.0000000000        0.0000000000
 Ni         0.0000000000        0.0000000000        0.0000000000
 Pt         0.0000000000        0.0000000000        0.0000000000
 Ni         0.0000000000        0.0000000000        0.0000000000
 Pt         0.0000000000        0.0000000000        0.0000000000
 Pt         0.0000000000        0.0000000000        0.0000000000
 Pt         0.0000000000        0.0000000000        0.0000000000
 Pt         0.0000000000        0.0000000000        0.0000000000
 Pt         0.0000000000        0.0000000000        0.0000000000
 Pt         0.0000000000        0.0000000000        0.0000000000
 Pt         0.0000000000        0.0000000000        0.0000000000
 Ni         0.0000000000        0.0000000000        0.0000000000
 Pt         0.0000000000        0.0000000000        0.0000000000
 Ni         0.0000000000        0.0000000000        0.0000000000
 Pt         0.0000000000        0.0000000000        0.0000000000
 Ni         0.0000000000        0.0000000000        0.0000000000
 Ni         0.0000000000        0.0000000000        0.0000000000
 Ni         0.0000000000        0.0000000000        0.0000000000
 Ni         0.0000000000        0.0000000000        0.0000000000
 Pt         0.0000000000        0.0000000000        0.0000000000
 Pt         0.0000000000        0.0000000000        0.0000000000
 Pt        -0.0002402511        0.0000332492       -0.0000492772
 Pt        -0.0002909064        0.0000335672       -0.0000687561
 Pt        -0.0002664528        0.0000127451       -0.0000801783
 Pt        -0.0002775340       -0.0000085556        0.0000132012
 Pt        -0.0001756132       -0.0000409897       -0.0000041442
 Pt        -0.0001891831       -0.0000249549        0.0000267854
 Pt        -0.0002155439       -0.0000226980        0.0000271095
 Pt        -0.0002283159       -0.0000552942        0.0000157685
 Pt        -0.0001924945        0.0000096558        0.0001353174
 Pt        -0.0002208163        0.0000203761        0.0000964658
      60
 i =        4, E =     -7949.3263178833
 Pt         0.0000610870        0.0000638508       -0.0000577701
 Pt         0.0000607219        0.0000451802        0.0000222288
 Pt        -0.0001121569        0.0000257407        0.0000062177
 Pt        -0.0001556222       -0.0000096301        0.0000022681
 Pt        -0.0000164152       -0.0000606106        0.0000111239
 Pt        -0.0000073430       -0.0000962939        0.0000056293
 Pt        -0.0000616753        0.0000807422        0.0000352616
 Pt        -0.0000290584        0.0001114432       -0.0000008421
 Pt        -0.0000500019        0.0000907949       -0.0000015142
 Pt        -0.0000847339        0.0000466271        0.0000090594
 Pt        -0.0000056483       -0.0000186061        0.0000139188
 Pt        -0.0000742108       -0.0000061785        0.0000302045
 Ni        -0.0000585005       -0.0001091142        0.0000313035
 Ni         0.0000101149       -0.0001123839        0.0000172860
 Ni         0.0000000000        0.0000000000        0.0000000000
 Ni         0.0000000000        0.0000000000        0.0000000000
 Pt         0.0000000000        0.0000000000        0.0000000000
 Pt         0.0000000000        0.0000000000        0.0000000000
 Ni         0.0000000000        0.0000000000        0.0000000000
 Ni         0.0000000000        0.0000000000        0.0000000000
 Pt         0.0000000000        0.0000000000        0.0000000000
 Pt         0.0000000000        0.0000000000        0.0000000000
 Pt         0.0000000000        0.0000000000        0.0000000000
 Pt         0.0000000000        0.0000000000        0.0000000000
 Pt         0.0000000000        0.0000000000        0.0000000000
 Pt         0.0000000000        0.0000000000        0.0000000000
 Ni         0.0000000000        0.0000000000        0.0000000000
 Pt         0.0000000000        0.0000000000        0.0000000000
 Pt         0.0000000000        0.0000000000        0.0000000000
 Pt         0.0000000000        0.0000000000        0.0000000000
 Ni         0.0000000000        0.0000000000        0.0000000000
 Pt         0.0000000000        0.0000000000        0.0000000000
 Ni         0.0000000000        0.0000000000        0.0000000000
 Pt         0.0000000000        0.0000000000        0.0000000000
 Pt         0.0000000000        0.0000000000        0.0000000000
 Pt         0.0000000000        0.0000000000        0.0000000000
 Pt         0.0000000000        0.0000000000        0.0000000000
 Pt         0.0000000000        0.0000000000        0.0000000000
 Pt         0.0000000000        0.0000000000        0.0000000000
 Pt         0.0000000000        0.0000000000        0.0000000000
 Ni         0.0000000000        0.0000000000        0.0000000000
 Pt         0.0000000000        0.0000000000        0.0000000000
 Ni         0.0000000000        0.0000000000        0.0000000000
 Pt         0.0000000000        0.0000000000        0.0000000000
 Ni         0.0000000000        0.0000000000        0.0000000000
 Ni         0.0000000000        0.0000000000        0.0000000000
 Ni         0.0000000000        0.0000000000        0.0000000000
 Ni         0.0000000000        0.0000000000        0.0000000000
 Pt         0.0000000000        0.0000000000        0.0000000000
 Pt         0.0000000000        0.0000000000        0.0000000000
 Pt        -0.0000982233        0.0000496958       -0.0000617928
 Pt        -0.0001215364        0.0000548783       -0.0000580001
 Pt        -0.0001787961        0.0000432676        0.0000203625
 Pt        -0.0001658579        0.0000311480       -0.0000042185
 Pt        -0.0000879221       -0.0000827324        0.0000528300
 Pt        -0.0000645967       -0.0000654120        0.0000505056
 Pt        -0.0000627049       -0.0000226021       -0.0000596062
 Pt        -0.0000417297       -0.0000370597       -0.0000570949
 Pt        -0.0001155044        0.0000175428        0.0000263836
 Pt        -0.0001619930        0.0000113551        0.0000931399
      60
 i =        5, E =     -7949.3263210056
 Pt         0.0000168089        0.0000360784       -0.0000183416
 Pt        -0.0000291346        0.0000244698        0.0000491841
 Pt        -0.0000414726        0.0000175799        0.0000174404
 Pt        -0.0000846649        0.0000001831        0.0000041769
 Pt        -0.0000420406       -0.0000161315        0.0000158644
 Pt        -0.0000351308       -0.0000322968       -0.0000041834
 Pt        -0.0000713208        0.0000318989        0.0000201630
 Pt        -0.0000255427        0.0000489747       -0.0000507889
 Pt        -0.0000312271        0.0000350286       -0.0000002786
 Pt        -0.0000364710        0.0000254411       -0.0000028239
 Pt         0.0000032721        0.0000123396        0.0000235484
 Pt        -0.0000360574        0.0000002378        0.0000300465
 Ni        -0.0000164391       -0.0000515986        0.0000175629
 Ni         0.0000358574       -0.0000346214        0.0000107555
 Ni         0.0000000000        0.0000000000        0.0000000000
 Ni         0.0000000000        0.0000000000        0.0000000000
 Pt         0.0000000000        0.0000000000        0.0000000000
 Pt         0.0000000000        0.0000000000        0.0000000000
 Ni         0.0000000000        0.0000000000        0.0000000000
 Ni         0.0000000000        0.0000000000        0.0000000000
 Pt         0.0000000000        0.0000000000        0.0000000000
 Pt         0.0000000000        0.0000000000        0.0000000000
 Pt         0.0000000000        0.0000000000        0.0000000000
 Pt         0.0000000000        0.0000000000        0.0000000000
 Pt         0.0000000000        0.0000000000        0.0000000000
 Pt         0.0000000000        0.0000000000        0.0000000000
 Ni         0.0000000000        0.0000000000        0.0000000000
 Pt         0.0000000000        0.0000000000        0.0000000000
 Pt         0.0000000000        0.0000000000        0.0000000000
 Pt         0.0000000000        0.0000000000        0.0000000000
 Ni         0.0000000000        0.0000000000        0.0000000000
 Pt         0.0000000000        0.0000000000        0.0000000000
 Ni         0.0000000000        0.0000000000        0.0000000000
 Pt         0.0000000000        0.0000000000        0.0000000000
 Pt         0.0000000000        0.0000000000        0.0000000000
 Pt         0.0000000000        0.0000000000        0.0000000000
 Pt         0.0000000000        0.0000000000        0.0000000000
 Pt         0.0000000000        0.0000000000        0.0000000000
 Pt         0.0000000000        0.0000000000        0.0000000000
 Pt         0.0000000000        0.0000000000        0.0000000000
 Ni         0.0000000000        0.0000000000        0.0000000000
 Pt         0.0000000000        0.0000000000        0.0000000000
 Ni         0.0000000000        0.0000000000        0.0000000000
 Pt         0.0000000000        0.0000000000        0.0000000000
 Ni         0.0000000000        0.0000000000        0.0000000000
 Ni         0.0000000000        0.0000000000        0.0000000000
 Ni         0.0000000000        0.0000000000        0.0000000000
 Ni         0.0000000000        0.0000000000        0.0000000000
 Pt         0.0000000000        0.0000000000        0.0000000000
 Pt         0.0000000000        0.0000000000        0.0000000000
 Pt        -0.0000148552        0.0000041881       -0.0000279836
 Pt        -0.0000049432        0.0000146278       -0.0000188804
 Pt        -0.0000289309        0.0000048830        0.0000585681
 Pt         0.0000012003        0.0000105228       -0.0000084956
 Pt         0.0000030667       -0.0000197785        0.0000438011
 Pt         0.0000083045       -0.0000155871        0.0000290069
 Pt         0.0000063206       -0.0000083793       -0.0000394146
 Pt         0.0000155592       -0.0000094987       -0.0000320086
 Pt         0.0000031192        0.0000179907       -0.0000267919
 Pt        -0.0000345939        0.0000091763        0.0000429110
      60
 i =        6, E =     -7949.3263219360
 Pt        -0.0000301351        0.0000110371        0.0000006234
 Pt        -0.0000189927        0.0000158325        0.0000261505
 Pt        -0.0000345347        0.0000059762        0.0000039723
 Pt        -0.0000356516        0.0000144991       -0.0000074196
 Pt        -0.0000271719        0.0000070734        0.0000082868
 Pt        -0.0000287141        0.0000095768        0.0000017311
 Pt        -0.0000286317        0.0000158155        0.0000108210
 Pt        -0.0000272127        0.0000091963       -0.0000232200
 Pt        -0.0000387138        0.0000165506       -0.0000073748
 Pt        -0.0000270519        0.0000106833       -0.0000033842
 Pt        -0.0000340399        0.0000079112        0.0000040070
 Pt        -0.0000196375        0.0000186630        0.0000088731
 Ni        -0.0000278063       -0.0000050737        0.0000088477
 Ni         0.0000161809       -0.0000028649        0.0000041237
 Ni         0.0000000000        0.0000000000        0.0000000000
 Ni         0.0000000000        0.0000000000        0.0000000000
 Pt         0.0000000000        0.0000000000        0.0000000000
 Pt         0.0000000000        0.0000000000        0.0000000000
 Ni         0.0000000000        0.0000000000        0.0000000000
 Ni         0.0000000000        0.0000000000        0.0000000000
 Pt         0.0000000000        0.0000000000        0.0000000000
 Pt         0.0000000000        0.0000000000        0.0000000000
 Pt         0.0000000000        0.0000000000        0.0000000000
 Pt         0.0000000000        0.0000000000        0.0000000000
 Pt         0.0000000000        0.0000000000        0.0000000000
 Pt         0.0000000000        0.0000000000        0.0000000000
 Ni         0.0000000000        0.0000000000        0.0000000000
 Pt         0.0000000000        0.0000000000        0.0000000000
 Pt         0.0000000000        0.0000000000        0.0000000000
 Pt         0.0000000000        0.0000000000        0.0000000000
 Ni         0.0000000000        0.0000000000        0.0000000000
 Pt         0.0000000000        0.0000000000        0.0000000000
 Ni         0.0000000000        0.0000000000        0.0000000000
 Pt         0.0000000000        0.0000000000        0.0000000000
 Pt         0.0000000000        0.0000000000        0.0000000000
 Pt         0.0000000000        0.0000000000        0.0000000000
 Pt         0.0000000000        0.0000000000        0.0000000000
 Pt         0.0000000000        0.0000000000        0.0000000000
 Pt         0.0000000000        0.0000000000        0.0000000000
 Pt         0.0000000000        0.0000000000        0.0000000000
 Ni         0.0000000000        0.0000000000        0.0000000000
 Pt         0.0000000000        0.0000000000        0.0000000000
 Ni         0.0000000000        0.0000000000        0.0000000000
 Pt         0.0000000000        0.0000000000        0.0000000000
 Ni         0.0000000000        0.0000000000        0.0000000000
 Ni         0.0000000000        0.0000000000        0.0000000000
 Ni         0.0000000000        0.0000000000        0.0000000000
 Ni         0.0000000000        0.0000000000        0.0000000000
 Pt         0.0000000000        0.0000000000        0.0000000000
 Pt         0.0000000000        0.0000000000        0.0000000000
 Pt         0.0000109868        0.0000016494       -0.0000062203
 Pt         0.0000210665        0.0000051217        0.0000037376
 Pt         0.0000111391        0.0000033699        0.0000207264
 Pt         0.0000130651        0.0000055122       -0.0000102925
 Pt         0.0000040186       -0.0000028955        0.0000082900
 Pt         0.0000102905       -0.0000057949        0.0000032131
 Pt         0.0000120300       -0.0000013671       -0.0000102077
 Pt         0.0000205023        0.0000037306       -0.0000044219
 Pt         0.0000082023        0.0000018951       -0.0000185219
 Pt         0.0000068099        0.0000001173        0.0000075941
      60
 i =        7, E =     -7949.3277930455
 Pt        -0.0000301351        0.0000110371        0.0000006234
 Pt        -0.0000189927        0.0000158325        0.0000261505
 Pt        -0.0000345347        0.0000059762        0.0000039723
 Pt        -0.0000356516        0.0000144991       -0.0000074196
 Pt        -0.0000271719        0.0000070734        0.0000082868
 Pt        -0.0000287141        0.0000095768        0.0000017311
 Pt        -0.0000286317        0.0000158155        0.0000108210
 Pt        -0.0000272127        0.0000091963       -0.0000232200
 Pt        -0.0000387138        0.0000165506       -0.0000073748
 Pt        -0.0000270519        0.0000106833       -0.0000033842
 Pt        -0.0000340399        0.0000079112        0.0000040070
 Pt        -0.0000196375        0.0000186630        0.0000088731
 Ni        -0.0000278063       -0.0000050737        0.0000088477
 Ni         0.0000161809       -0.0000028649        0.0000041237
 Ni         0.0000000000        0.0000000000        0.0000000000
 Ni         0.0000000000        0.0000000000        0.0000000000
 Pt         0.0000000000        0.0000000000        0.0000000000
 Pt         0.0000000000        0.0000000000        0.0000000000
 Ni         0.0000000000        0.0000000000        0.0000000000
 Ni         0.0000000000        0.0000000000        0.0000000000
 Pt         0.0000000000        0.0000000000        0.0000000000
 Pt         0.0000000000        0.0000000000        0.0000000000
 Pt         0.0000000000        0.0000000000        0.0000000000
 Pt         0.0000000000        0.0000000000        0.0000000000
 Pt         0.0000000000        0.0000000000        0.0000000000
 Pt         0.0000000000        0.0000000000        0.0000000000
 Ni         0.0000000000        0.0000000000        0.0000000000
 Pt         0.0000000000        0.0000000000        0.0000000000
 Pt         0.0000000000        0.0000000000        0.0000000000
 Pt         0.0000000000        0.0000000000        0.0000000000
 Ni         0.0000000000        0.0000000000        0.0000000000
 Pt         0.0000000000        0.0000000000        0.0000000000
 Ni         0.0000000000        0.0000000000        0.0000000000
 Pt         0.0000000000        0.0000000000        0.0000000000
 Pt         0.0000000000        0.0000000000        0.0000000000
 Pt         0.0000000000        0.0000000000        0.0000000000
 Pt         0.0000000000        0.0000000000        0.0000000000
 Pt         0.0000000000        0.0000000000        0.0000000000
 Pt         0.0000000000        0.0000000000        0.0000000000
 Pt         0.0000000000        0.0000000000        0.0000000000
 Ni         0.0000000000        0.0000000000        0.0000000000
 Pt         0.0000000000        0.0000000000        0.0000000000
 Ni         0.0000000000        0.0000000000        0.0000000000
 Pt         0.0000000000        0.0000000000        0.0000000000
 Ni         0.0000000000        0.0000000000        0.0000000000
 Ni         0.0000000000        0.0000000000        0.0000000000
 Ni         0.0000000000        0.0000000000        0.0000000000
 Ni         0.0000000000        0.0000000000        0.0000000000
 Pt         0.0000000000        0.0000000000        0.0000000000
 Pt         0.0000000000        0.0000000000        0.0000000000
 Pt         0.0000109868        0.0000016494       -0.0000062203
 Pt         0.0000210665        0.0000051217        0.0000037376
 Pt         0.0000111391        0.0000033699        0.0000207264
 Pt         0.0000130651        0.0000055122       -0.0000102925
 Pt         0.0000040186       -0.0000028955        0.0000082900
 Pt         0.0000102905       -0.0000057949        0.0000032131
 Pt         0.0000120300       -0.0000013671       -0.0000102077
 Pt         0.0000205023        0.0000037306       -0.0000044219
 Pt         0.0000082023        0.0000018951       -0.0000185219
 Pt         0.0000068099        0.0000001173        0.0000075941
