      60
 i =        1, E =     -7949.3259976119
 Pt        -3.0942204185        5.4136146906        8.0986595408
 Pt         1.5959725214        5.4139256149        8.1170945214
 Pt        -0.7351500159        1.3540779179        8.1609206588
 Pt         3.9549254222        1.3528509673        8.1627837745
 Pt         1.5881386522        2.7061201102        8.1320539549
 Pt         6.2781992196        2.7060361981        8.1268244081
 Pt         6.2719911891       -0.0009150511        8.1488815520
 Pt         1.5838513807       -0.0011064840        8.1351968207
 Pt        -0.7283401900        6.7654466165        8.1782359668
 Pt         3.9622251233        6.7643332528        8.1810742427
 Pt        -0.7231982583        4.0621649697        8.1930170885
 Pt         3.9678537344        4.0616496443        8.1953678394
 Ni         0.0329016415        5.4299847647       10.3762343175
 Ni         4.7269505243        2.6952426288       10.3754058674
 Ni         0.0160000000        0.0150000000       10.3730000000
 Ni         4.7050000000        5.4260000000       10.3920000000
 Pt        -2.3310000000        4.0520000000       10.3920000000
 Pt        -2.3180000000        6.7740000000       10.3940000000
 Ni         0.0080000000        2.6910000000       10.3950000000
 Ni         4.6860000000        0.0040000000       10.4010000000
 Pt         2.3650000000        4.0810000000       10.4020000000
 Pt         2.3960000000        1.3360000000       10.4050000000
 Pt         2.3780000000        6.7430000000       10.4060000000
 Pt         7.0860000000        1.3800000000       10.4080000000
 Pt        -3.9070000000        6.7680000000       12.5310000000
 Pt        -1.5630000000        5.4150000000       12.5310000000
 Ni        -1.5630000000        2.7070000000       12.5310000000
 Pt         0.7810000000        4.0610000000       12.5310000000
 Pt         0.7820000000        1.3540000000       12.5310000000
 Pt         0.7820000000        6.7680000000       12.5310000000
 Ni         3.1260000000        0.0000000000       12.5310000000
 Pt         3.1260000000        2.7070000000       12.5310000000
 Ni         3.1260000000        5.4150000000       12.5310000000
 Pt         5.4700000000        4.0610000000       12.5310000000
 Pt         5.4710000000        1.3540000000       12.5310000000
 Pt         7.8150000000        0.0000000000       12.5310000000
 Pt        -0.8320000000        1.3780000000       14.6550000000
 Pt         3.8770000000        6.7430000000       14.6550000000
 Pt         3.8570000000        1.3360000000       14.6570000000
 Pt         3.8930000000        4.0800000000       14.6600000000
 Ni         6.2490000000        2.6890000000       14.6640000000
 Pt        -0.8060000000        6.7750000000       14.6640000000
 Ni         1.5680000000        0.0050000000       14.6650000000
 Pt        -0.7900000000        4.0510000000       14.6670000000
 Ni         1.5530000000        5.4270000000       14.6680000000
 Ni         6.2380000000        0.0140000000       14.6910000000
 Ni        -3.1570000000        5.4280000000       14.6920000000
 Ni         1.5410000000        2.6790000000       14.6930000000
 Pt         2.2960000000        4.0600000000       16.8370000000
 Pt        -2.3960000000        4.0570000000       16.8390000000
 Pt         2.3022482897        6.7642826981       16.8826815031
 Pt        -2.3847438458        6.7657681615       16.8862274670
 Pt         4.6796949584       -0.0005215964       16.9248833774
 Pt        -0.0077409108       -0.0000393165       16.9128025913
 Pt        -0.0137430335        2.7066555047       16.9329553609
 Pt         4.6760274999        2.7054963142       16.9274169251
 Pt         6.9991739221        1.3533175441       16.9033217410
 Pt         2.3100328814        1.3521092789       16.9060424259
 Pt         4.6683278018        5.4147311850       16.9431938866
 Pt        -0.0189825206        5.4135077691       16.9565582469
      60
 i =        2, E =     -7949.3262920467
 Pt        -3.1001093379        5.4148934012        8.1128724767
 Pt         1.5912411862        5.4146457153        8.1251155470
 Pt        -0.7299529464        1.3537367099        8.1715333342
 Pt         3.9591232671        1.3518729775        8.1745096786
 Pt         1.5889325132        2.7045991992        8.1314748727
 Pt         6.2802335637        2.7033966636        8.1221084436
 Pt         6.2770188035        0.0005779217        8.1400475648
 Pt         1.5908665933        0.0014718957        8.1257790329
 Pt        -0.7290364476        6.7687385978        8.1758994495
 Pt         3.9590326265        6.7679644259        8.1784992858
 Pt        -0.7278348042        4.0597679492        8.1822204513
 Pt         3.9597757807        4.0594711888        8.1844689611
 Ni         0.0308601792        5.4269251360       10.3766919872
 Ni         4.7248228428        2.6920314046       10.3760115218
 Ni         0.0160000000        0.0150000000       10.3730000000
 Ni         4.7050000000        5.4260000000       10.3920000000
 Pt        -2.3310000000        4.0520000000       10.3920000000
 Pt        -2.3180000000        6.7740000000       10.3940000000
 Ni         0.0080000000        2.6910000000       10.3950000000
 Ni         4.6860000000        0.0040000000       10.4010000000
 Pt         2.3650000000        4.0810000000       10.4020000000
 Pt         2.3960000000        1.3360000000       10.4050000000
 Pt         2.3780000000        6.7430000000       10.4060000000
 Pt         7.0860000000        1.3800000000       10.4080000000
 Pt        -3.9070000000        6.7680000000       12.5310000000
 Pt        -1.5630000000        5.4150000000       12.5310000000
 Ni        -1.5630000000        2.7070000000       12.5310000000
 Pt         0.7810000000        4.0610000000       12.5310000000
 Pt         0.7820000000        1.3540000000       12.5310000000
 Pt         0.7820000000        6.7680000000       12.5310000000
 Ni         3.1260000000        0.0000000000       12.5310000000
 Pt         3.1260000000        2.7070000000       12.5310000000
 Ni         3.1260000000        5.4150000000       12.5310000000
 Pt         5.4700000000        4.0610000000       12.5310000000
 Pt         5.4710000000        1.3540000000       12.5310000000
 Pt         7.8150000000        0.0000000000       12.5310000000
 Pt        -0.8320000000        1.3780000000       14.6550000000
 Pt         3.8770000000        6.7430000000       14.6550000000
 Pt         3.8570000000        1.3360000000       14.6570000000
 Pt         3.8930000000        4.0800000000       14.6600000000
 Ni         6.2490000000        2.6890000000       14.6640000000
 Pt        -0.8060000000        6.7750000000       14.6640000000
 Ni         1.5680000000        0.0050000000       14.6650000000
 Pt        -0.7900000000        4.0510000000       14.6670000000
 Ni         1.5530000000        5.4270000000       14.6680000000
 Ni         6.2380000000        0.0140000000       14.6910000000
 Ni        -3.1570000000        5.4280000000       14.6920000000
 Ni         1.5410000000        2.6790000000       14.6930000000
 Pt         2.2960000000        4.0600000000       16.8370000000
 Pt        -2.3960000000        4.0570000000       16.8390000000
 Pt         2.3041368408        6.7680747841       16.8846699378
 Pt        -2.3847736220        6.7679599554       16.8881530792
 Pt         4.6724160637       -0.0005768356       16.9351968799
 Pt        -0.0137075215       -0.0005873853       16.9227657377
 Pt        -0.0186376620        2.7024511813       16.9363347890
 Pt         4.6723617010        2.7024719182       16.9283322621
 Pt         6.9929556530        1.3518092156       16.8925345235
 Pt         2.3043915751        1.3498985404       16.8943253618
 Pt         4.6701208138        5.4155787896       16.9355568220
 Pt        -0.0166028135        5.4147492653       16.9424638788
      60
 i =        3, E =     -7949.3263089909
 Pt        -3.1017440351        5.4142954579        8.1138005246
 Pt         1.5902064894        5.4144490332        8.1247010097
 Pt        -0.7293783096        1.3539716631        8.1710663924
 Pt         3.9607520098        1.3525868925        8.1741569144
 Pt         1.5886977153        2.7059013120        8.1312621684
 Pt         6.2799504412        2.7052202174        8.1223016046
 Pt         6.2775870813       -0.0000448704        8.1397415287
 Pt         1.5907842706        0.0003592589        8.1267324051
 Pt        -0.7293716306        6.7679914801        8.1756517093
 Pt         3.9592173705        6.7675417551        8.1783710850
 Pt        -0.7290597410        4.0604271400        8.1815513585
 Pt         3.9596792212        4.0604460987        8.1837002334
 Ni         0.0291787555        5.4273587974       10.3764809420
 Ni         4.7241915542        2.6936303545       10.3757899246
 Ni         0.0160000000        0.0150000000       10.3730000000
 Ni         4.7050000000        5.4260000000       10.3920000000
 Pt        -2.3310000000        4.0520000000       10.3920000000
 Pt        -2.3180000000        6.7740000000       10.3940000000
 Ni         0.0080000000        2.6910000000       10.3950000000
 Ni         4.6860000000        0.0040000000       10.4010000000
 Pt         2.3650000000        4.0810000000       10.4020000000
 Pt         2.3960000000        1.3360000000       10.4050000000
 Pt         2.3780000000        6.7430000000       10.4060000000
 Pt         7.0860000000        1.3800000000       10.4080000000
 Pt        -3.9070000000        6.7680000000       12.5310000000
 Pt        -1.5630000000        5.4150000000       12.5310000000
 Ni        -1.5630000000        2.7070000000       12.5310000000
 Pt         0.7810000000        4.0610000000       12.5310000000
 Pt         0.7820000000        1.3540000000       12.5310000000
 Pt         0.7820000000        6.7680000000       12.5310000000
 Ni         3.1260000000        0.0000000000       12.5310000000
 Pt         3.1260000000        2.7070000000       12.5310000000
 Ni         3.1260000000        5.4150000000       12.5310000000
 Pt         5.4700000000        4.0610000000       12.5310000000
 Pt         5.4710000000        1.3540000000       12.5310000000
 Pt         7.8150000000        0.0000000000       12.5310000000
 Pt        -0.8320000000        1.3780000000       14.6550000000
 Pt         3.8770000000        6.7430000000       14.6550000000
 Pt         3.8570000000        1.3360000000       14.6570000000
 Pt         3.8930000000        4.0800000000       14.6600000000
 Ni         6.2490000000        2.6890000000       14.6640000000
 Pt        -0.8060000000        6.7750000000       14.6640000000
 Ni         1.5680000000        0.0050000000       14.6650000000
 Pt        -0.7900000000        4.0510000000       14.6670000000
 Ni         1.5530000000        5.4270000000       14.6680000000
 Ni         6.2380000000        0.0140000000       14.6910000000
 Ni        -3.1570000000        5.4280000000       14.6920000000
 Ni         1.5410000000        2.6790000000       14.6930000000
 Pt         2.2960000000        4.0600000000       16.8370000000
 Pt        -2.3960000000        4.0570000000       16.8390000000
 Pt         2.3021657473        6.7673880217       16.8847073441
 Pt        -2.3865602259        6.7671801023       16.8880358983
 Pt         4.6706231765       -0.0010244074       16.9348354113
 Pt        -0.0159808572       -0.0009770431       16.9237576786
 Pt        -0.0201122559        2.7036933029       16.9357632994
 Pt         4.6706389351        2.7034126658       16.9281573886
 Pt         6.9903616731        1.3520545500       16.8927645321
 Pt         2.3014299643        1.3502361819       16.8944558436
 Pt         4.6689289424        5.4148716280       16.9361432343
 Pt        -0.0169138092        5.4141048210       16.9417571841
      60
 i =        4, E =     -7949.3263178833
 Pt        -3.1023089175        5.4145606075        8.1137626656
 Pt         1.5895646012        5.4145708148        8.1242328156
 Pt        -0.7295045827        1.3542645913        8.1704810720
 Pt         3.9607446136        1.3528238134        8.1738548940
 Pt         1.5884429406        2.7062773939        8.1313038427
 Pt         6.2796266004        2.7056101239        8.1225549470
 Pt         6.2774468506        0.0000462512        8.1398950429
 Pt         1.5904219991        0.0005751050        8.1278516101
 Pt        -0.7295488819        6.7682305298        8.1755883382
 Pt         3.9588356648        6.7678407822        8.1783131584
 Pt        -0.7294333016        4.0606761473        8.1809933214
 Pt         3.9592162714        4.0606613496        8.1832967606
 Ni         0.0278049908        5.4267209359       10.3762228324
 Ni         4.7237598420        2.6937871835       10.3756379446
 Ni         0.0160000000        0.0150000000       10.3730000000
 Ni         4.7050000000        5.4260000000       10.3920000000
 Pt        -2.3310000000        4.0520000000       10.3920000000
 Pt        -2.3180000000        6.7740000000       10.3940000000
 Ni         0.0080000000        2.6910000000       10.3950000000
 Ni         4.6860000000        0.0040000000       10.4010000000
 Pt         2.3650000000        4.0810000000       10.4020000000
 Pt         2.3960000000        1.3360000000       10.4050000000
 Pt         2.3780000000        6.7430000000       10.4060000000
 Pt         7.0860000000        1.3800000000       10.4080000000
 Pt        -3.9070000000        6.7680000000       12.5310000000
 Pt        -1.5630000000        5.4150000000       12.5310000000
 Ni        -1.5630000000        2.7070000000       12.5310000000
 Pt         0.7810000000        4.0610000000       12.5310000000
 Pt         0.7820000000        1.3540000000       12.5310000000
 Pt         0.7820000000        6.7680000000       12.5310000000
 Ni         3.1260000000        0.0000000000       12.5310000000
 Pt         3.1260000000        2.7070000000       12.5310000000
 Ni         3.1260000000        5.4150000000       12.5310000000
 Pt         5.4700000000        4.0610000000       12.5310000000
 Pt         5.4710000000        1.3540000000       12.5310000000
 Pt         7.8150000000        0.0000000000       12.5310000000
 Pt        -0.8320000000        1.3780000000       14.6550000000
 Pt         3.8770000000        6.7430000000       14.6550000000
 Pt         3.8570000000        1.3360000000       14.6570000000
 Pt         3.8930000000        4.0800000000       14.6600000000
 Ni         6.2490000000        2.6890000000       14.6640000000
 Pt        -0.8060000000        6.7750000000       14.6640000000
 Ni         1.5680000000        0.0050000000       14.6650000000
 Pt        -0.7900000000        4.0510000000       14.6670000000
 Ni         1.5530000000        5.4270000000       14.6680000000
 Ni         6.2380000000        0.0140000000       14.6910000000
 Ni        -3.1570000000        5.4280000000       14.6920000000
 Ni         1.5410000000        2.6790000000       14.6930000000
 Pt         2.2960000000        4.0600000000       16.8370000000
 Pt        -2.3960000000        4.0570000000       16.8390000000
 Pt         2.2997746652        6.7673186177       16.8844106578
 Pt        -2.3891749122        6.7670812905       16.8875443698
 Pt         4.6681646042       -0.0011294089       16.9343622400
 Pt        -0.0186939621       -0.0011774251       16.9243279365
 Pt        -0.0217604406        2.7038749559       16.9356150749
 Pt         4.6687935582        2.7035972662       16.9283075570
 Pt         6.9878810667        1.3520342466       16.8928995901
 Pt         2.2987641272        1.3500193027       16.8944704519
 Pt         4.6672424673        5.4146608160       16.9371703375
 Pt        -0.0184754219        5.4140231895       16.9420293547
      60
 i =        5, E =     -7949.3263210056
 Pt        -3.1025571279        5.4149243121        8.1135650941
 Pt         1.5893894469        5.4149170285        8.1242752399
 Pt        -0.7302493258        1.3545995281        8.1702871774
 Pt         3.9600007845        1.3530866593        8.1736910332
 Pt         1.5880049451        2.7064428672        8.1313357462
 Pt         6.2791586111        2.7056964524        8.1227026806
 Pt         6.2768961011        0.0004664345        8.1401040043
 Pt         1.5897750957        0.0010569182        8.1282937074
 Pt        -0.7299699784        6.7686695029        8.1755477344
 Pt         3.9582931967        6.7681888199        8.1783321141
 Pt        -0.7298258644        4.0608686306        8.1806863982
 Pt         3.9587817311        4.0609237238        8.1832526256
 Ni         0.0265527391        5.4260470709       10.3762698368
 Ni         4.7235912688        2.6935945781       10.3756205910
 Ni         0.0160000000        0.0150000000       10.3730000000
 Ni         4.7050000000        5.4260000000       10.3920000000
 Pt        -2.3310000000        4.0520000000       10.3920000000
 Pt        -2.3180000000        6.7740000000       10.3940000000
 Ni         0.0080000000        2.6910000000       10.3950000000
 Ni         4.6860000000        0.0040000000       10.4010000000
 Pt         2.3650000000        4.0810000000       10.4020000000
 Pt         2.3960000000        1.3360000000       10.4050000000
 Pt         2.3780000000        6.7430000000       10.4060000000
 Pt         7.0860000000        1.3800000000       10.4080000000
 Pt        -3.9070000000        6.7680000000       12.5310000000
 Pt        -1.5630000000        5.4150000000       12.5310000000
 Ni        -1.5630000000        2.7070000000       12.5310000000
 Pt         0.7810000000        4.0610000000       12.5310000000
 Pt         0.7820000000        1.3540000000       12.5310000000
 Pt         0.7820000000        6.7680000000       12.5310000000
 Ni         3.1260000000        0.0000000000       12.5310000000
 Pt         3.1260000000        2.7070000000       12.5310000000
 Ni         3.1260000000        5.4150000000       12.5310000000
 Pt         5.4700000000        4.0610000000       12.5310000000
 Pt         5.4710000000        1.3540000000       12.5310000000
 Pt         7.8150000000        0.0000000000       12.5310000000
 Pt        -0.8320000000        1.3780000000       14.6550000000
 Pt         3.8770000000        6.7430000000       14.6550000000
 Pt         3.8570000000        1.3360000000       14.6570000000
 Pt         3.8930000000        4.0800000000       14.6600000000
 Ni         6.2490000000        2.6890000000       14.6640000000
 Pt        -0.8060000000        6.7750000000       14.6640000000
 Ni         1.5680000000        0.0050000000       14.6650000000
 Pt        -0.7900000000        4.0510000000       14.6670000000
 Ni         1.5530000000        5.4270000000       14.6680000000
 Ni         6.2380000000        0.0140000000       14.6910000000
 Ni        -3.1570000000        5.4280000000       14.6920000000
 Ni         1.5410000000        2.6790000000       14.6930000000
 Pt         2.2960000000        4.0600000000       16.8370000000
 Pt        -2.3960000000        4.0570000000       16.8390000000
 Pt         2.2974971658        6.7674392602       16.8838048297
 Pt        -2.3915895604        6.7672283693       16.8868713701
 Pt         4.6656561394       -0.0010567341       16.9344208786
 Pt        -0.0213391670       -0.0011623835       16.9247744228
 Pt        -0.0232157347        2.7037199705       16.9359202774
 Pt         4.6673563942        2.7035203948       16.9287596190
 Pt         6.9857865369        1.3519776478       16.8924318982
 Pt         2.2966886295        1.3498654978       16.8939660896
 Pt         4.6655361375        5.4144935050       16.9377887699
 Pt        -0.0202523231        5.4138831557       16.9426875147
      60
 i =        6, E =     -7949.3263219360
 Pt        -3.1025991585        5.4151276140        8.1134574060
 Pt         1.5891230961        5.4150921805        8.1245462540
 Pt        -0.7305823777        1.3547505130        8.1703202123
 Pt         3.9594943994        1.3531913363        8.1736559042
 Pt         1.5876739905        2.7065001781        8.1314298356
 Pt         6.2788519178        2.7056838731        8.1227064241
 Pt         6.2764217127        0.0006542406        8.1402542438
 Pt         1.5894754154        0.0012999239        8.1281096529
 Pt        -0.7302149835        6.7688590851        8.1755538139
 Pt         3.9580389350        6.7683627700        8.1783106245
 Pt        -0.7299407223        4.0610001736        8.1807479486
 Pt         3.9585612310        4.0610111199        8.1834199686
 Ni         0.0262080031        5.4257736378       10.3763658995
 Ni         4.7237047376        2.6934886928       10.3756501972
 Ni         0.0160000000        0.0150000000       10.3730000000
 Ni         4.7050000000        5.4260000000       10.3920000000
 Pt        -2.3310000000        4.0520000000       10.3920000000
 Pt        -2.3180000000        6.7740000000       10.3940000000
 Ni         0.0080000000        2.6910000000       10.3950000000
 Ni         4.6860000000        0.0040000000       10.4010000000
 Pt         2.3650000000        4.0810000000       10.4020000000
 Pt         2.3960000000        1.3360000000       10.4050000000
 Pt         2.3780000000        6.7430000000       10.4060000000
 Pt         7.0860000000        1.3800000000       10.4080000000
 Pt        -3.9070000000        6.7680000000       12.5310000000
 Pt        -1.5630000000        5.4150000000       12.5310000000
 Ni        -1.5630000000        2.7070000000       12.5310000000
 Pt         0.7810000000        4.0610000000       12.5310000000
 Pt         0.7820000000        1.3540000000       12.5310000000
 Pt         0.7820000000        6.7680000000       12.5310000000
 Ni         3.1260000000        0.0000000000       12.5310000000
 Pt         3.1260000000        2.7070000000       12.5310000000
 Ni         3.1260000000        5.4150000000       12.5310000000
 Pt         5.4700000000        4.0610000000       12.5310000000
 Pt         5.4710000000        1.3540000000       12.5310000000
 Pt         7.8150000000        0.0000000000       12.5310000000
 Pt        -0.8320000000        1.3780000000       14.6550000000
 Pt         3.8770000000        6.7430000000       14.6550000000
 Pt         3.8570000000        1.3360000000       14.6570000000
 Pt         3.8930000000        4.0800000000       14.6600000000
 Ni         6.2490000000        2.6890000000       14.6640000000
 Pt        -0.8060000000        6.7750000000       14.6640000000
 Ni         1.5680000000        0.0050000000       14.6650000000
 Pt        -0.7900000000        4.0510000000       14.6670000000
 Ni         1.5530000000        5.4270000000       14.6680000000
 Ni         6.2380000000        0.0140000000       14.6910000000
 Ni        -3.1570000000        5.4280000000       14.6920000000
 Ni         1.5410000000        2.6790000000       14.6930000000
 Pt         2.2960000000        4.0600000000       16.8370000000
 Pt        -2.3960000000        4.0570000000       16.8390000000
 Pt         2.2969879585        6.7674285597       16.8835591782
 Pt        -2.3920424896        6.7672735835       16.8866614061
 Pt         4.6651144390       -0.0010590700       16.9347520460
 Pt        -0.0217692981       -0.0011332786       16.9248167220
 Pt        -0.0234348043        2.7036878763       16.9361903022
 Pt         4.6671356759        2.7035052186       16.9289820757
 Pt         6.9854110750        1.3519287578       16.8921698246
 Pt         2.2963458027        1.3498318623       16.8937404392
 Pt         4.6652757495        5.4145317848       16.9377504768
 Pt        -0.0206909562        5.4138714526       16.9430176083
      60
 i =        7, E =     -7949.3277930455
 Pt        -3.1025991585        5.4151276140        8.1134574060
 Pt         1.5891230961        5.4150921805        8.1245462540
 Pt        -0.7305823777        1.3547505130        8.1703202123
 Pt         3.9594943994        1.3531913363        8.1736559042
 Pt         1.5876739905        2.7065001781        8.1314298356
 Pt         6.2788519178        2.7056838731        8.1227064241
 Pt         6.2764217127        0.0006542406        8.1402542438
 Pt         1.5894754154        0.0012999239        8.1281096529
 Pt        -0.7302149835        6.7688590851        8.1755538139
 Pt         3.9580389350        6.7683627700        8.1783106245
 Pt        -0.7299407223        4.0610001736        8.1807479486
 Pt         3.9585612310        4.0610111199        8.1834199686
 Ni         0.0262080031        5.4257736378       10.3763658995
 Ni         4.7237047376        2.6934886928       10.3756501972
 Ni         0.0160000000        0.0150000000       10.3730000000
 Ni         4.7050000000        5.4260000000       10.3920000000
 Pt        -2.3310000000        4.0520000000       10.3920000000
 Pt        -2.3180000000        6.7740000000       10.3940000000
 Ni         0.0080000000        2.6910000000       10.3950000000
 Ni         4.6860000000        0.0040000000       10.4010000000
 Pt         2.3650000000        4.0810000000       10.4020000000
 Pt         2.3960000000        1.3360000000       10.4050000000
 Pt         2.3780000000        6.7430000000       10.4060000000
 Pt         7.0860000000        1.3800000000       10.4080000000
 Pt        -3.9070000000        6.7680000000       12.5310000000
 Pt        -1.5630000000        5.4150000000       12.5310000000
 Ni        -1.5630000000        2.7070000000       12.5310000000
 Pt         0.7810000000        4.0610000000       12.5310000000
 Pt         0.7820000000        1.3540000000       12.5310000000
 Pt         0.7820000000        6.7680000000       12.5310000000
 Ni         3.1260000000        0.0000000000       12.5310000000
 Pt         3.1260000000        2.7070000000       12.5310000000
 Ni         3.1260000000        5.4150000000       12.5310000000
 Pt         5.4700000000        4.0610000000       12.5310000000
 Pt         5.4710000000        1.3540000000       12.5310000000
 Pt         7.8150000000        0.0000000000       12.5310000000
 Pt        -0.8320000000        1.3780000000       14.6550000000
 Pt         3.8770000000        6.7430000000       14.6550000000
 Pt         3.8570000000        1.3360000000       14.6570000000
 Pt         3.8930000000        4.0800000000       14.6600000000
 Ni         6.2490000000        2.6890000000       14.6640000000
 Pt        -0.8060000000        6.7750000000       14.6640000000
 Ni         1.5680000000        0.0050000000       14.6650000000
 Pt        -0.7900000000        4.0510000000       14.6670000000
 Ni         1.5530000000        5.4270000000       14.6680000000
 Ni         6.2380000000        0.0140000000       14.6910000000
 Ni        -3.1570000000        5.4280000000       14.6920000000
 Ni         1.5410000000        2.6790000000       14.6930000000
 Pt         2.2960000000        4.0600000000       16.8370000000
 Pt        -2.3960000000        4.0570000000       16.8390000000
 Pt         2.2969879585        6.7674285597       16.8835591782
 Pt        -2.3920424896        6.7672735835       16.8866614061
 Pt         4.6651144390       -0.0010590700       16.9347520460
 Pt        -0.0217692981       -0.0011332786       16.9248167220
 Pt        -0.0234348043        2.7036878763       16.9361903022
 Pt         4.6671356759        2.7035052186       16.9289820757
 Pt         6.9854110750        1.3519287578       16.8921698246
 Pt         2.2963458027        1.3498318623       16.8937404392
 Pt         4.6652757495        5.4145317848       16.9377504768
 Pt        -0.0206909562        5.4138714526       16.9430176083
